*SPEF "ieee 1481-1999"
*DESIGN "ring_osc2x13"
*DATE "08:16:22 Saturday July 04, 2026"
*VENDOR "The OpenROAD Project"
*PROGRAM "OpenROAD"
*VERSION "dcf36133a369abc8f3c5e5738cd4d82e4903c0e0"
*DESIGN_FLOW "NAME_SCOPE LOCAL" "PIN_CAP NONE"
*DIVIDER /
*DELIMITER :
*BUS_DELIMITER []
*T_UNIT 1 NS
*C_UNIT 1 PF
*R_UNIT 1 OHM
*L_UNIT 1 HENRY

*NAME_MAP
*3 clockp[0]
*4 clockp[1]
*5 reset
*6 trim[0]
*7 trim[10]
*8 trim[11]
*9 trim[12]
*10 trim[13]
*11 trim[14]
*12 trim[15]
*13 trim[16]
*14 trim[17]
*15 trim[18]
*16 trim[19]
*17 trim[1]
*18 trim[20]
*19 trim[21]
*20 trim[22]
*21 trim[23]
*22 trim[24]
*23 trim[25]
*24 trim[2]
*25 trim[3]
*26 trim[4]
*27 trim[5]
*28 trim[6]
*29 trim[7]
*30 trim[8]
*31 trim[9]
*32 c\[0\]
*33 c\[1\]
*34 dstage\[10\]\.id\.d0
*35 dstage\[10\]\.id\.d1
*36 dstage\[10\]\.id\.d2
*37 dstage\[10\]\.id\.in
*38 dstage\[10\]\.id\.ltrim\[0\]
*39 dstage\[10\]\.id\.ltrim\[1\]
*40 dstage\[10\]\.id\.ltrimb\[0\]
*41 dstage\[10\]\.id\.ltrimb\[1\]
*42 dstage\[10\]\.id\.not_edge
*43 dstage\[10\]\.id\.nreset
*44 dstage\[10\]\.id\.out
*45 dstage\[10\]\.id\.out_del
*46 dstage\[10\]\.id\.prev_in
*47 dstage\[10\]\.id\.ts
*48 dstage\[11\]\.id\.d0
*49 dstage\[11\]\.id\.d1
*50 dstage\[11\]\.id\.d2
*51 dstage\[11\]\.id\.ltrim\[0\]
*52 dstage\[11\]\.id\.ltrim\[1\]
*53 dstage\[11\]\.id\.ltrimb\[0\]
*54 dstage\[11\]\.id\.ltrimb\[1\]
*55 dstage\[11\]\.id\.not_edge
*56 dstage\[11\]\.id\.out
*57 dstage\[11\]\.id\.out_del
*58 dstage\[11\]\.id\.prev_in
*59 dstage\[11\]\.id\.ts
*60 dstage\[2\]\.id\.d0
*61 dstage\[2\]\.id\.d1
*62 dstage\[2\]\.id\.d2
*63 dstage\[2\]\.id\.in
*64 dstage\[2\]\.id\.ltrim\[0\]
*65 dstage\[2\]\.id\.ltrim\[1\]
*66 dstage\[2\]\.id\.ltrimb\[0\]
*67 dstage\[2\]\.id\.ltrimb\[1\]
*68 dstage\[2\]\.id\.not_edge
*69 dstage\[2\]\.id\.out
*70 dstage\[2\]\.id\.out_del
*71 dstage\[2\]\.id\.prev_in
*72 dstage\[2\]\.id\.ts
*73 dstage\[3\]\.id\.d0
*74 dstage\[3\]\.id\.d1
*75 dstage\[3\]\.id\.d2
*76 dstage\[3\]\.id\.ltrim\[0\]
*77 dstage\[3\]\.id\.ltrim\[1\]
*78 dstage\[3\]\.id\.ltrimb\[0\]
*79 dstage\[3\]\.id\.ltrimb\[1\]
*80 dstage\[3\]\.id\.not_edge
*81 dstage\[3\]\.id\.out
*82 dstage\[3\]\.id\.out_del
*83 dstage\[3\]\.id\.prev_in
*84 dstage\[3\]\.id\.ts
*85 dstage\[4\]\.id\.d0
*86 dstage\[4\]\.id\.d1
*87 dstage\[4\]\.id\.d2
*88 dstage\[4\]\.id\.ltrim\[0\]
*89 dstage\[4\]\.id\.ltrim\[1\]
*90 dstage\[4\]\.id\.ltrimb\[0\]
*91 dstage\[4\]\.id\.ltrimb\[1\]
*92 dstage\[4\]\.id\.not_edge
*93 dstage\[4\]\.id\.out
*94 dstage\[4\]\.id\.out_del
*95 dstage\[4\]\.id\.ts
*96 dstage\[5\]\.id\.d0
*97 dstage\[5\]\.id\.d1
*98 dstage\[5\]\.id\.d2
*99 dstage\[5\]\.id\.ltrim\[0\]
*100 dstage\[5\]\.id\.ltrim\[1\]
*101 dstage\[5\]\.id\.ltrimb\[0\]
*102 dstage\[5\]\.id\.ltrimb\[1\]
*103 dstage\[5\]\.id\.not_edge
*104 dstage\[5\]\.id\.out
*105 dstage\[5\]\.id\.out_del
*106 dstage\[5\]\.id\.ts
*107 dstage\[6\]\.id\.d0
*108 dstage\[6\]\.id\.d1
*109 dstage\[6\]\.id\.d2
*110 dstage\[6\]\.id\.ltrim\[0\]
*111 dstage\[6\]\.id\.ltrim\[1\]
*112 dstage\[6\]\.id\.ltrimb\[0\]
*113 dstage\[6\]\.id\.ltrimb\[1\]
*114 dstage\[6\]\.id\.not_edge
*115 dstage\[6\]\.id\.out
*116 dstage\[6\]\.id\.out_del
*117 dstage\[6\]\.id\.ts
*118 dstage\[7\]\.id\.d0
*119 dstage\[7\]\.id\.d1
*120 dstage\[7\]\.id\.d2
*121 dstage\[7\]\.id\.ltrim\[0\]
*122 dstage\[7\]\.id\.ltrim\[1\]
*123 dstage\[7\]\.id\.ltrimb\[0\]
*124 dstage\[7\]\.id\.ltrimb\[1\]
*125 dstage\[7\]\.id\.not_edge
*126 dstage\[7\]\.id\.out_del
*127 dstage\[7\]\.id\.ts
*128 dstage\[8\]\.id\.d0
*129 dstage\[8\]\.id\.d1
*130 dstage\[8\]\.id\.d2
*131 dstage\[8\]\.id\.ltrim\[0\]
*132 dstage\[8\]\.id\.ltrim\[1\]
*133 dstage\[8\]\.id\.ltrimb\[0\]
*134 dstage\[8\]\.id\.ltrimb\[1\]
*135 dstage\[8\]\.id\.not_edge
*136 dstage\[8\]\.id\.out_del
*137 dstage\[8\]\.id\.ts
*138 dstage\[9\]\.id\.d0
*139 dstage\[9\]\.id\.d1
*140 dstage\[9\]\.id\.d2
*141 dstage\[9\]\.id\.ltrim\[0\]
*142 dstage\[9\]\.id\.ltrim\[1\]
*143 dstage\[9\]\.id\.ltrimb\[0\]
*144 dstage\[9\]\.id\.ltrimb\[1\]
*145 dstage\[9\]\.id\.not_edge
*146 dstage\[9\]\.id\.out_del
*147 dstage\[9\]\.id\.ts
*148 id0\.d0
*149 id0\.d1
*150 id0\.d2
*151 id0\.ltrim\[0\]
*152 id0\.ltrim\[1\]
*153 id0\.ltrimb\[0\]
*154 id0\.ltrimb\[1\]
*155 id0\.not_edge
*156 id0\.out_del
*157 id0\.ts
*158 id1\.d0
*159 id1\.d1
*160 id1\.d2
*161 id1\.ltrim\[0\]
*162 id1\.ltrim\[1\]
*163 id1\.ltrimb\[0\]
*164 id1\.ltrimb\[1\]
*165 id1\.not_edge
*166 id1\.out_del
*167 id1\.ts
*168 iss\.ctrl0b
*169 iss\.d0
*170 iss\.d1
*171 iss\.d2
*172 iss\.ltrim\[0\]
*173 iss\.ltrim\[1\]
*174 iss\.not_edge
*175 iss\.nreset_del
*176 iss\.out_del
*177 iss\.out_precg
*178 iss\.trim1b
*179 net
*180 ANTENNA__0__I
*181 ANTENNA_dstage\[10\]\.id\.t0_latch_D
*182 ANTENNA_dstage\[10\]\.id\.t1_latch_D
*183 ANTENNA_dstage\[11\]\.id\.t0_latch_D
*184 ANTENNA_dstage\[11\]\.id\.t1_latch_D
*185 ANTENNA_dstage\[2\]\.id\.t0_latch_D
*186 ANTENNA_dstage\[2\]\.id\.t1_latch_D
*187 ANTENNA_dstage\[3\]\.id\.t0_latch_D
*188 ANTENNA_dstage\[3\]\.id\.t1_latch_D
*189 ANTENNA_dstage\[4\]\.id\.t0_latch_D
*190 ANTENNA_dstage\[4\]\.id\.t1_latch_D
*191 ANTENNA_dstage\[5\]\.id\.t0_latch_D
*192 ANTENNA_dstage\[5\]\.id\.t1_latch_D
*193 ANTENNA_dstage\[6\]\.id\.t0_latch_D
*194 ANTENNA_dstage\[6\]\.id\.t1_latch_D
*195 ANTENNA_dstage\[7\]\.id\.t0_latch_D
*196 ANTENNA_dstage\[7\]\.id\.t1_latch_D
*197 ANTENNA_dstage\[8\]\.id\.t0_latch_D
*198 ANTENNA_dstage\[8\]\.id\.t1_latch_D
*199 ANTENNA_dstage\[9\]\.id\.t0_latch_D
*200 ANTENNA_dstage\[9\]\.id\.t1_latch_D
*201 ANTENNA_id0\.t0_latch_D
*202 ANTENNA_id0\.t1_latch_D
*203 ANTENNA_id1\.t0_latch_D
*204 ANTENNA_id1\.t1_latch_D
*205 ANTENNA_iss\.ctrlen0_A1
*206 ANTENNA_iss\.reseten0_EN
*207 ANTENNA_iss\.t0_latch_D
*208 ANTENNA_iss\.t1_latch_D
*209 FILLER_0_133
*210 FILLER_0_135
*211 FILLER_0_138
*212 FILLER_0_4
*213 FILLER_0_93
*214 FILLER_10_145
*215 FILLER_10_153
*216 FILLER_10_2
*217 FILLER_10_37
*218 FILLER_11_101
*219 FILLER_11_144
*220 FILLER_11_152
*221 FILLER_11_2
*222 FILLER_11_25
*223 FILLER_11_72
*224 FILLER_12_146
*225 FILLER_12_2
*226 FILLER_12_41
*227 FILLER_12_72
*228 FILLER_13_137
*229 FILLER_13_139
*230 FILLER_13_146
*231 FILLER_13_2
*232 FILLER_13_72
*233 FILLER_14_104
*234 FILLER_14_107
*235 FILLER_14_126
*236 FILLER_14_142
*237 FILLER_14_150
*238 FILLER_14_2
*239 FILLER_14_25
*240 FILLER_14_49
*241 FILLER_15_111
*242 FILLER_15_113
*243 FILLER_15_124
*244 FILLER_15_142
*245 FILLER_15_150
*246 FILLER_15_2
*247 FILLER_15_48
*248 FILLER_15_61
*249 FILLER_15_74
*250 FILLER_16_102
*251 FILLER_16_104
*252 FILLER_16_131
*253 FILLER_16_144
*254 FILLER_16_152
*255 FILLER_16_2
*256 FILLER_16_25
*257 FILLER_16_87
*258 FILLER_17_138
*259 FILLER_17_142
*260 FILLER_17_150
*261 FILLER_17_4
*262 FILLER_17_61
*263 FILLER_18_134
*264 FILLER_18_150
*265 FILLER_18_2
*266 FILLER_18_61
*267 FILLER_18_98
*268 FILLER_19_133
*269 FILLER_19_137
*270 FILLER_19_139
*271 FILLER_19_142
*272 FILLER_19_150
*273 FILLER_19_2
*274 FILLER_19_72
*275 FILLER_1_139
*276 FILLER_1_142
*277 FILLER_1_150
*278 FILLER_1_2
*279 FILLER_1_25
*280 FILLER_1_69
*281 FILLER_20_131
*282 FILLER_20_147
*283 FILLER_20_151
*284 FILLER_20_153
*285 FILLER_20_2
*286 FILLER_21_101
*287 FILLER_21_118
*288 FILLER_21_134
*289 FILLER_21_138
*290 FILLER_21_2
*291 FILLER_21_27
*292 FILLER_21_72
*293 FILLER_2_104
*294 FILLER_2_145
*295 FILLER_2_153
*296 FILLER_2_37
*297 FILLER_3_142
*298 FILLER_3_150
*299 FILLER_3_2
*300 FILLER_4_134
*301 FILLER_4_150
*302 FILLER_4_34
*303 FILLER_4_53
*304 FILLER_5_135
*305 FILLER_5_139
*306 FILLER_5_142
*307 FILLER_5_150
*308 FILLER_5_2
*309 FILLER_5_95
*310 FILLER_6_138
*311 FILLER_6_2
*312 FILLER_6_37
*313 FILLER_6_92
*314 FILLER_7_148
*315 FILLER_7_152
*316 FILLER_7_72
*317 FILLER_8_104
*318 FILLER_8_2
*319 FILLER_8_25
*320 FILLER_8_37
*321 FILLER_9_120
*322 FILLER_9_138
*323 FILLER_9_146
*324 PHY_EDGE_ROW_0_Left_22
*325 PHY_EDGE_ROW_0_Right_0
*326 PHY_EDGE_ROW_10_Left_32
*327 PHY_EDGE_ROW_10_Right_10
*328 PHY_EDGE_ROW_11_Left_33
*329 PHY_EDGE_ROW_11_Right_11
*330 PHY_EDGE_ROW_12_Left_34
*331 PHY_EDGE_ROW_12_Right_12
*332 PHY_EDGE_ROW_13_Left_35
*333 PHY_EDGE_ROW_13_Right_13
*334 PHY_EDGE_ROW_14_Left_36
*335 PHY_EDGE_ROW_14_Right_14
*336 PHY_EDGE_ROW_15_Left_37
*337 PHY_EDGE_ROW_15_Right_15
*338 PHY_EDGE_ROW_16_Left_38
*339 PHY_EDGE_ROW_16_Right_16
*340 PHY_EDGE_ROW_17_Left_39
*341 PHY_EDGE_ROW_17_Right_17
*342 PHY_EDGE_ROW_18_Left_40
*343 PHY_EDGE_ROW_18_Right_18
*344 PHY_EDGE_ROW_19_Left_41
*345 PHY_EDGE_ROW_19_Right_19
*346 PHY_EDGE_ROW_1_Left_23
*347 PHY_EDGE_ROW_1_Right_1
*348 PHY_EDGE_ROW_20_Left_42
*349 PHY_EDGE_ROW_20_Right_20
*350 PHY_EDGE_ROW_21_Left_43
*351 PHY_EDGE_ROW_21_Right_21
*352 PHY_EDGE_ROW_2_Left_24
*353 PHY_EDGE_ROW_2_Right_2
*354 PHY_EDGE_ROW_3_Left_25
*355 PHY_EDGE_ROW_3_Right_3
*356 PHY_EDGE_ROW_4_Left_26
*357 PHY_EDGE_ROW_4_Right_4
*358 PHY_EDGE_ROW_5_Left_27
*359 PHY_EDGE_ROW_5_Right_5
*360 PHY_EDGE_ROW_6_Left_28
*361 PHY_EDGE_ROW_6_Right_6
*362 PHY_EDGE_ROW_7_Left_29
*363 PHY_EDGE_ROW_7_Right_7
*364 PHY_EDGE_ROW_8_Left_30
*365 PHY_EDGE_ROW_8_Right_8
*366 PHY_EDGE_ROW_9_Left_31
*367 PHY_EDGE_ROW_9_Right_9
*368 TAP_TAPCELL_ROW_0_44
*369 TAP_TAPCELL_ROW_0_45
*370 TAP_TAPCELL_ROW_0_46
*371 TAP_TAPCELL_ROW_0_47
*372 TAP_TAPCELL_ROW_10_66
*373 TAP_TAPCELL_ROW_10_67
*374 TAP_TAPCELL_ROW_11_68
*375 TAP_TAPCELL_ROW_11_69
*376 TAP_TAPCELL_ROW_12_70
*377 TAP_TAPCELL_ROW_12_71
*378 TAP_TAPCELL_ROW_13_72
*379 TAP_TAPCELL_ROW_13_73
*380 TAP_TAPCELL_ROW_14_74
*381 TAP_TAPCELL_ROW_14_75
*382 TAP_TAPCELL_ROW_15_76
*383 TAP_TAPCELL_ROW_15_77
*384 TAP_TAPCELL_ROW_16_78
*385 TAP_TAPCELL_ROW_16_79
*386 TAP_TAPCELL_ROW_17_80
*387 TAP_TAPCELL_ROW_17_81
*388 TAP_TAPCELL_ROW_18_82
*389 TAP_TAPCELL_ROW_18_83
*390 TAP_TAPCELL_ROW_19_84
*391 TAP_TAPCELL_ROW_19_85
*392 TAP_TAPCELL_ROW_1_48
*393 TAP_TAPCELL_ROW_1_49
*394 TAP_TAPCELL_ROW_20_86
*395 TAP_TAPCELL_ROW_20_87
*396 TAP_TAPCELL_ROW_21_88
*397 TAP_TAPCELL_ROW_21_89
*398 TAP_TAPCELL_ROW_21_90
*399 TAP_TAPCELL_ROW_21_91
*400 TAP_TAPCELL_ROW_2_50
*401 TAP_TAPCELL_ROW_2_51
*402 TAP_TAPCELL_ROW_3_52
*403 TAP_TAPCELL_ROW_3_53
*404 TAP_TAPCELL_ROW_4_54
*405 TAP_TAPCELL_ROW_4_55
*406 TAP_TAPCELL_ROW_5_56
*407 TAP_TAPCELL_ROW_5_57
*408 TAP_TAPCELL_ROW_6_58
*409 TAP_TAPCELL_ROW_6_59
*410 TAP_TAPCELL_ROW_7_60
*411 TAP_TAPCELL_ROW_7_61
*412 TAP_TAPCELL_ROW_8_62
*413 TAP_TAPCELL_ROW_8_63
*414 TAP_TAPCELL_ROW_9_64
*415 TAP_TAPCELL_ROW_9_65
*416 _0_
*417 dstage\[10\]\.id\.deglitch_buf
*418 dstage\[10\]\.id\.delaybuf0
*419 dstage\[10\]\.id\.delaybuf1
*420 dstage\[10\]\.id\.delayen0
*421 dstage\[10\]\.id\.delayen1
*422 dstage\[10\]\.id\.delayenb0
*423 dstage\[10\]\.id\.delayenb1
*424 dstage\[10\]\.id\.delayint0
*425 dstage\[10\]\.id\.hold_d1
*426 dstage\[10\]\.id\.hold_out
*427 dstage\[10\]\.id\.t0_latch
*428 dstage\[10\]\.id\.t1_latch
*429 dstage\[10\]\.id\.trim0bar
*430 dstage\[10\]\.id\.trim1bar
*431 dstage\[10\]\.id\.trim_inhibit
*432 dstage\[11\]\.id\.deglitch_buf
*433 dstage\[11\]\.id\.delaybuf0
*434 dstage\[11\]\.id\.delaybuf1
*435 dstage\[11\]\.id\.delayen0
*436 dstage\[11\]\.id\.delayen1
*437 dstage\[11\]\.id\.delayenb0
*438 dstage\[11\]\.id\.delayenb1
*439 dstage\[11\]\.id\.delayint0
*440 dstage\[11\]\.id\.hold_d1
*441 dstage\[11\]\.id\.hold_out
*442 dstage\[11\]\.id\.t0_latch
*443 dstage\[11\]\.id\.t1_latch
*444 dstage\[11\]\.id\.trim0bar
*445 dstage\[11\]\.id\.trim1bar
*446 dstage\[11\]\.id\.trim_inhibit
*447 dstage\[2\]\.id\.deglitch_buf
*448 dstage\[2\]\.id\.delaybuf0
*449 dstage\[2\]\.id\.delaybuf1
*450 dstage\[2\]\.id\.delayen0
*451 dstage\[2\]\.id\.delayen1
*452 dstage\[2\]\.id\.delayenb0
*453 dstage\[2\]\.id\.delayenb1
*454 dstage\[2\]\.id\.delayint0
*455 dstage\[2\]\.id\.hold_d1
*456 dstage\[2\]\.id\.hold_out
*457 dstage\[2\]\.id\.t0_latch
*458 dstage\[2\]\.id\.t1_latch
*459 dstage\[2\]\.id\.trim0bar
*460 dstage\[2\]\.id\.trim1bar
*461 dstage\[2\]\.id\.trim_inhibit
*462 dstage\[3\]\.id\.deglitch_buf
*463 dstage\[3\]\.id\.delaybuf0
*464 dstage\[3\]\.id\.delaybuf1
*465 dstage\[3\]\.id\.delayen0
*466 dstage\[3\]\.id\.delayen1
*467 dstage\[3\]\.id\.delayenb0
*468 dstage\[3\]\.id\.delayenb1
*469 dstage\[3\]\.id\.delayint0
*470 dstage\[3\]\.id\.hold_d1
*471 dstage\[3\]\.id\.hold_out
*472 dstage\[3\]\.id\.t0_latch
*473 dstage\[3\]\.id\.t1_latch
*474 dstage\[3\]\.id\.trim0bar
*475 dstage\[3\]\.id\.trim1bar
*476 dstage\[3\]\.id\.trim_inhibit
*477 dstage\[4\]\.id\.deglitch_buf
*478 dstage\[4\]\.id\.delaybuf0
*479 dstage\[4\]\.id\.delaybuf1
*480 dstage\[4\]\.id\.delayen0
*481 dstage\[4\]\.id\.delayen1
*482 dstage\[4\]\.id\.delayenb0
*483 dstage\[4\]\.id\.delayenb1
*484 dstage\[4\]\.id\.delayint0
*485 dstage\[4\]\.id\.hold_d1
*486 dstage\[4\]\.id\.hold_out
*487 dstage\[4\]\.id\.t0_latch
*488 dstage\[4\]\.id\.t1_latch
*489 dstage\[4\]\.id\.trim0bar
*490 dstage\[4\]\.id\.trim1bar
*491 dstage\[4\]\.id\.trim_inhibit
*492 dstage\[5\]\.id\.deglitch_buf
*493 dstage\[5\]\.id\.delaybuf0
*494 dstage\[5\]\.id\.delaybuf1
*495 dstage\[5\]\.id\.delayen0
*496 dstage\[5\]\.id\.delayen1
*497 dstage\[5\]\.id\.delayenb0
*498 dstage\[5\]\.id\.delayenb1
*499 dstage\[5\]\.id\.delayint0
*500 dstage\[5\]\.id\.hold_d1
*501 dstage\[5\]\.id\.hold_out
*502 dstage\[5\]\.id\.t0_latch
*503 dstage\[5\]\.id\.t1_latch
*504 dstage\[5\]\.id\.trim0bar
*505 dstage\[5\]\.id\.trim1bar
*506 dstage\[5\]\.id\.trim_inhibit
*507 dstage\[6\]\.id\.deglitch_buf
*508 dstage\[6\]\.id\.delaybuf0
*509 dstage\[6\]\.id\.delaybuf1
*510 dstage\[6\]\.id\.delayen0
*511 dstage\[6\]\.id\.delayen1
*512 dstage\[6\]\.id\.delayenb0
*513 dstage\[6\]\.id\.delayenb1
*514 dstage\[6\]\.id\.delayint0
*515 dstage\[6\]\.id\.hold_d1
*516 dstage\[6\]\.id\.hold_out
*517 dstage\[6\]\.id\.t0_latch
*518 dstage\[6\]\.id\.t1_latch
*519 dstage\[6\]\.id\.trim0bar
*520 dstage\[6\]\.id\.trim1bar
*521 dstage\[6\]\.id\.trim_inhibit
*522 dstage\[7\]\.id\.deglitch_buf
*523 dstage\[7\]\.id\.delaybuf0
*524 dstage\[7\]\.id\.delaybuf1
*525 dstage\[7\]\.id\.delayen0
*526 dstage\[7\]\.id\.delayen1
*527 dstage\[7\]\.id\.delayenb0
*528 dstage\[7\]\.id\.delayenb1
*529 dstage\[7\]\.id\.delayint0
*530 dstage\[7\]\.id\.hold_d1
*531 dstage\[7\]\.id\.hold_out
*532 dstage\[7\]\.id\.t0_latch
*533 dstage\[7\]\.id\.t1_latch
*534 dstage\[7\]\.id\.trim0bar
*535 dstage\[7\]\.id\.trim1bar
*536 dstage\[7\]\.id\.trim_inhibit
*537 dstage\[8\]\.id\.deglitch_buf
*538 dstage\[8\]\.id\.delaybuf0
*539 dstage\[8\]\.id\.delaybuf1
*540 dstage\[8\]\.id\.delayen0
*541 dstage\[8\]\.id\.delayen1
*542 dstage\[8\]\.id\.delayenb0
*543 dstage\[8\]\.id\.delayenb1
*544 dstage\[8\]\.id\.delayint0
*545 dstage\[8\]\.id\.hold_d1
*546 dstage\[8\]\.id\.hold_out
*547 dstage\[8\]\.id\.t0_latch
*548 dstage\[8\]\.id\.t1_latch
*549 dstage\[8\]\.id\.trim0bar
*550 dstage\[8\]\.id\.trim1bar
*551 dstage\[8\]\.id\.trim_inhibit
*552 dstage\[9\]\.id\.deglitch_buf
*553 dstage\[9\]\.id\.delaybuf0
*554 dstage\[9\]\.id\.delaybuf1
*555 dstage\[9\]\.id\.delayen0
*556 dstage\[9\]\.id\.delayen1
*557 dstage\[9\]\.id\.delayenb0
*558 dstage\[9\]\.id\.delayenb1
*559 dstage\[9\]\.id\.delayint0
*560 dstage\[9\]\.id\.hold_d1
*561 dstage\[9\]\.id\.hold_out
*562 dstage\[9\]\.id\.t0_latch
*563 dstage\[9\]\.id\.t1_latch
*564 dstage\[9\]\.id\.trim0bar
*565 dstage\[9\]\.id\.trim1bar
*566 dstage\[9\]\.id\.trim_inhibit
*567 ibufp00
*568 ibufp01
*569 ibufp10
*570 ibufp11
*571 id0\.deglitch_buf
*572 id0\.delaybuf0
*573 id0\.delaybuf1
*574 id0\.delayen0
*575 id0\.delayen1
*576 id0\.delayenb0
*577 id0\.delayenb1
*578 id0\.delayint0
*579 id0\.hold_d1
*580 id0\.hold_out
*581 id0\.t0_latch
*582 id0\.t1_latch
*583 id0\.trim0bar
*584 id0\.trim1bar
*585 id0\.trim_inhibit
*586 id1\.deglitch_buf
*587 id1\.delaybuf0
*588 id1\.delaybuf1
*589 id1\.delayen0
*590 id1\.delayen1
*591 id1\.delayenb0
*592 id1\.delayenb1
*593 id1\.delayint0
*594 id1\.hold_d1
*595 id1\.hold_out
*596 id1\.t0_latch
*597 id1\.t1_latch
*598 id1\.trim0bar
*599 id1\.trim1bar
*600 id1\.trim_inhibit
*601 iss\.cg_and
*602 iss\.ctrlen0
*603 iss\.deglitch_buf
*604 iss\.delaybuf0
*605 iss\.delayen0
*606 iss\.delayen1
*607 iss\.delayenb0
*608 iss\.delayenb1
*609 iss\.delayint0
*610 iss\.hold_d1
*611 iss\.hold_out
*612 iss\.nreset_delay
*613 iss\.reseten0
*614 iss\.reseten0_1
*615 iss\.t0_latch
*616 iss\.t1_latch
*617 iss\.trim1bar
*618 iss\.trim_inhibit

*PORTS
clockp[0] O
clockp[1] O
reset I
trim[0] I
trim[10] I
trim[11] I
trim[12] I
trim[13] I
trim[14] I
trim[15] I
trim[16] I
trim[17] I
trim[18] I
trim[19] I
trim[1] I
trim[20] I
trim[21] I
trim[22] I
trim[23] I
trim[24] I
trim[25] I
trim[2] I
trim[3] I
trim[4] I
trim[5] I
trim[6] I
trim[7] I
trim[8] I
trim[9] I

*D_NET *3 0.00159501
*CONN
*P clockp[0] O
*I *568:ZN O *D gf180mcu_fd_sc_mcu7t5v0__clkinv_8
*CAP
1 clockp[0] 0.000646149
2 *568:ZN 0.000646149
3 clockp[0] *539:I 0
4 clockp[0] *541:I 0.000113027
5 clockp[0] *545:Z 5.25526e-05
6 clockp[0] *129:6 0.000137132
*RES
1 *568:ZN clockp[0] 18.128 
*END

*D_NET *4 0.00113972
*CONN
*P clockp[1] O
*I *570:ZN O *D gf180mcu_fd_sc_mcu7t5v0__clkinv_8
*CAP
1 clockp[1] 0.000461038
2 *570:ZN 0.000461038
3 clockp[1] *549:I 0.000183045
4 clockp[1] *56:69 3.4596e-05
*RES
1 *570:ZN clockp[1] 8.296 
*END

*D_NET *5 0.00550483
*CONN
*P reset I
*I *206:I I *D gf180mcu_fd_sc_mcu7t5v0__antenna
*I *180:I I *D gf180mcu_fd_sc_mcu7t5v0__antenna
*I *613:EN I *D gf180mcu_fd_sc_mcu7t5v0__invz_1
*I *602:A1 I *D gf180mcu_fd_sc_mcu7t5v0__nor2_2
*I *205:I I *D gf180mcu_fd_sc_mcu7t5v0__antenna
*I *416:I I *D gf180mcu_fd_sc_mcu7t5v0__clkinv_1
*CAP
1 reset 0.000468774
2 *206:I 7.57732e-05
3 *180:I 4.18815e-05
4 *613:EN 0
5 *602:A1 0
6 *205:I 0.000180386
7 *416:I 0
8 *5:26 0.00062051
9 *5:22 0.000578348
10 *5:15 0.000483036
11 *5:9 0.00053223
12 *5:7 0.000690084
13 *205:I *492:I 0
14 *205:I *43:10 0
15 *206:I *104:56 0
16 *5:7 *104:43 2.55277e-05
17 *5:9 *104:56 0
18 *5:15 *492:I 0.000617599
19 *5:15 *104:43 0.000765938
20 *5:22 *43:6 0.000419265
21 *5:22 *56:31 5.47431e-06
22 *5:22 *104:56 0
23 *5:26 *492:I 0
24 *5:26 *43:10 0
*RES
1 reset *5:7 7.88 
2 *5:7 *5:9 0.728 
3 *5:9 *5:15 12.64 
4 *5:15 *416:I 4.5 
5 *5:15 *5:22 1.352 
6 *5:22 *5:26 7.932 
7 *5:26 *205:I 10.56 
8 *5:26 *602:A1 9 
9 *5:22 *613:EN 4.5 
10 *5:9 *180:I 4.812 
11 *5:7 *206:I 5.02 
*END

*D_NET *6 0.013706
*CONN
*P trim[0] I
*I *201:I I *D gf180mcu_fd_sc_mcu7t5v0__antenna
*I *581:D I *D gf180mcu_fd_sc_mcu7t5v0__latrnq_1
*CAP
1 trim[0] 0.0010539
2 *201:I 0.0040424
3 *581:D 0
4 *6:9 0.0050963
5 *201:I *476:A2 0.00160061
6 *201:I *512:EN 0.00011339
7 *201:I *573:I 0.000127169
8 *201:I *583:I 0.000635963
9 *201:I *599:I 0.000108463
10 *201:I *157:22 0.000391037
11 *201:I *157:24 0.000105648
12 *201:I *167:8 0.000271947
13 *6:9 *10:13 0.000141559
14 *6:9 *17:9 1.76031e-05
*RES
1 trim[0] *6:9 11.936 
2 *6:9 *581:D 13.5 
3 *6:9 *201:I 34.7464 
*END

*D_NET *7 0.00758796
*CONN
*P trim[10] I
*I *181:I I *D gf180mcu_fd_sc_mcu7t5v0__antenna
*I *427:D I *D gf180mcu_fd_sc_mcu7t5v0__latrnq_1
*CAP
1 trim[10] 0.0017573
2 *181:I 0
3 *427:D 0.000672311
4 *7:9 0.00242961
5 *427:D *431:A2 1.29841e-05
6 *427:D *510:I 0
7 *427:D *510:ZN 9.00698e-05
8 *427:D *525:I 4.16532e-05
9 *427:D *525:ZN 0.000827379
10 *427:D *528:EN 4.87987e-05
11 *427:D *534:I 2.08795e-05
12 *427:D *12:17 0.000330495
13 *7:9 *487:D 0.000419276
14 *7:9 *510:I 0
15 *7:9 *511:EN 0.000227396
16 *7:9 *512:I 0
17 *7:9 *513:EN 0.000419276
18 *7:9 *514:I 6.53775e-05
19 *7:9 *515:Z 2.37133e-06
20 *7:9 *521:A2 8.96278e-05
21 *7:9 *535:I 7.91741e-06
22 *7:9 *8:13 0.000115863
23 *7:9 *31:13 9.36889e-06
24 *7:9 *117:8 0
*RES
1 trim[10] *7:9 16.096 
2 *7:9 *427:D 20.052 
3 *7:9 *181:I 4.5 
*END

*D_NET *8 0.0143753
*CONN
*P trim[11] I
*I *442:D I *D gf180mcu_fd_sc_mcu7t5v0__latrnq_1
*I *183:I I *D gf180mcu_fd_sc_mcu7t5v0__antenna
*CAP
1 trim[11] 0.00195606
2 *442:D 2.40868e-05
3 *183:I 0
4 *8:13 0.00198015
5 *442:D *549:I 0.00117583
6 *442:D *559:I 0.00114582
7 *8:13 *190:I 0.000397744
8 *8:13 *431:A1 2.38656e-05
9 *8:13 *431:A2 0.000815671
10 *8:13 *487:D 0.000916449
11 *8:13 *487:E 0.000113027
12 *8:13 *488:E 1.70609e-05
13 *8:13 *510:EN 0
14 *8:13 *521:A2 0.000594106
15 *8:13 *535:I 0.0005333
16 *8:13 *549:I 0.000438819
17 *8:13 *559:I 0.000438819
18 *8:13 *9:13 1.29259e-05
19 *8:13 *14:9 0.00243285
20 *8:13 *21:13 4.14168e-05
21 *8:13 *44:53 0.00105164
22 *8:13 *46:33 0.000149829
23 *7:9 *8:13 0.000115863
*RES
1 trim[11] *8:13 31.308 
2 *8:13 *183:I 9 
3 *8:13 *442:D 12.016 
*END

*D_NET *9 0.0106819
*CONN
*P trim[12] I
*I *207:I I *D gf180mcu_fd_sc_mcu7t5v0__antenna
*I *615:D I *D gf180mcu_fd_sc_mcu7t5v0__latrnq_1
*CAP
1 trim[12] 0.00154037
2 *207:I 0
3 *615:D 0.000305791
4 *9:13 0.00184616
5 *615:D *429:I 7.77451e-05
6 *615:D *484:I 7.12164e-06
7 *615:D *615:E 2.38656e-05
8 *615:D *12:17 9.86089e-05
9 *615:D *38:8 3.85294e-05
10 *615:D *44:31 0.000796633
11 *9:13 *193:I 4.22072e-05
12 *9:13 *431:A2 0
13 *9:13 *480:I 0.000560736
14 *9:13 *488:D 0.000605853
15 *9:13 *510:ZN 0
16 *9:13 *511:I 0.00115233
17 *9:13 *10:13 9.72172e-06
18 *9:13 *16:17 0.000107667
19 *9:13 *44:31 1.61811e-05
20 *9:13 *44:53 0.000906289
21 *9:13 *89:8 1.823e-05
22 *9:13 *93:20 0
23 *9:13 *125:12 0.00251497
24 *8:13 *9:13 1.29259e-05
*RES
1 trim[12] *9:13 22.752 
2 *9:13 *615:D 16.62 
3 *9:13 *207:I 4.5 
*END

*D_NET *10 0.0236482
*CONN
*P trim[13] I
*I *202:I I *D gf180mcu_fd_sc_mcu7t5v0__antenna
*I *582:D I *D gf180mcu_fd_sc_mcu7t5v0__latrnq_1
*CAP
1 trim[13] 0.000978351
2 *202:I 0.00149637
3 *582:D 5.06482e-05
4 *10:13 0.00252537
5 *202:I *203:I 0
6 *202:I *451:I 0.00052226
7 *202:I *452:I 0.000367033
8 *202:I *574:I 7.86567e-05
9 *202:I *574:ZN 0.000201335
10 *202:I *575:I 0.000386969
11 *202:I *575:ZN 0.000815404
12 *202:I *578:I 0.00217403
13 *202:I *584:I 0.000348644
14 *202:I *592:EN 0.000543188
15 *202:I *598:I 4.18042e-05
16 *202:I *17:9 0.000288749
17 *202:I *44:53 0.000254933
18 *202:I *63:37 0.000279774
19 *202:I *63:50 0.000202187
20 *202:I *149:21 0.00243886
21 *202:I *152:12 5.43663e-05
22 *202:I *156:14 0
23 *582:D *575:I 0.000479555
24 *582:D *582:E 0.000479555
25 *10:13 *194:I 2.39523e-06
26 *10:13 *11:9 6.11194e-05
27 *10:13 *16:17 0.000752688
28 *10:13 *17:9 2.76472e-05
29 *10:13 *30:19 0.000134792
30 *10:13 *31:13 0.00194132
31 *10:13 *44:53 0.00556891
32 *6:9 *10:13 0.000141559
33 *9:13 *10:13 9.72172e-06
*RES
1 trim[13] *10:13 26.94 
2 *10:13 *582:D 10.352 
3 *10:13 *202:I 35.208 
*END

*D_NET *11 0.0127218
*CONN
*P trim[14] I
*I *597:D I *D gf180mcu_fd_sc_mcu7t5v0__latrnq_1
*I *204:I I *D gf180mcu_fd_sc_mcu7t5v0__antenna
*CAP
1 trim[14] 0.000494689
2 *597:D 0.000487486
3 *204:I 0.000427663
4 *11:9 0.00140984
5 *204:I *194:I 0.000264364
6 *204:I *573:I 0.000392281
7 *204:I *44:53 0.00105205
8 *597:D *188:I 9.45935e-05
9 *597:D *193:I 0.000678732
10 *597:D *508:I 0
11 *597:D *521:A1 2.15783e-05
12 *597:D *596:E 0.000569581
13 *597:D *28:5 0.00024406
14 *597:D *29:9 1.95034e-05
15 *11:9 *194:I 3.54704e-05
16 *11:9 *532:D 0.00121873
17 *11:9 *533:E 0
18 *11:9 *12:17 6.26797e-05
19 *11:9 *16:17 0.00118688
20 *11:9 *29:9 0.00175294
21 *11:9 *44:53 0.00224756
22 *11:9 *125:12 0
23 *10:13 *11:9 6.11194e-05
*RES
1 trim[14] *11:9 15.264 
2 *11:9 *204:I 9.596 
3 *11:9 *597:D 19.428 
*END

*D_NET *12 0.0195322
*CONN
*P trim[15] I
*I *458:D I *D gf180mcu_fd_sc_mcu7t5v0__latrnq_1
*I *186:I I *D gf180mcu_fd_sc_mcu7t5v0__antenna
*CAP
1 trim[15] 0.00345279
2 *458:D 0
3 *186:I 0.000401569
4 *12:17 0.00385436
5 *186:I *457:E 5.36847e-05
6 *186:I *583:I 5.469e-05
7 *186:I *589:I 0.000188241
8 *186:I *592:EN 0.000831768
9 *186:I *593:I 1.60428e-05
10 *186:I *594:Z 6.12308e-05
11 *186:I *599:I 0.000642782
12 *186:I *600:A2 0.00017298
13 *186:I *63:37 4.09568e-05
14 *186:I *167:22 0.000313028
15 *12:17 *420:I 2.90134e-05
16 *12:17 *429:I 0.000241507
17 *12:17 *431:A2 0
18 *12:17 *457:E 3.22108e-05
19 *12:17 *471:Z 0.00032158
20 *12:17 *480:ZN 0.0010392
21 *12:17 *481:ZN 0
22 *12:17 *482:EN 0
23 *12:17 *483:I 5.81438e-06
24 *12:17 *484:I 0
25 *12:17 *490:I 0
26 *12:17 *525:ZN 0.000501776
27 *12:17 *526:EN 8.46549e-05
28 *12:17 *527:EN 0.00123977
29 *12:17 *531:Z 0
30 *12:17 *534:I 1.65172e-05
31 *12:17 *600:A1 5.12872e-06
32 *12:17 *600:A2 0.000490603
33 *12:17 *615:E 1.59524e-05
34 *12:17 *13:9 7.35039e-06
35 *12:17 *38:8 0.000179953
36 *12:17 *43:21 0.000845418
37 *12:17 *43:25 0.00136931
38 *12:17 *43:184 0.000124111
39 *12:17 *44:31 0
40 *12:17 *68:8 0.000103803
41 *12:17 *71:37 5.73926e-05
42 *12:17 *81:62 0.000109233
43 *12:17 *95:25 7.86587e-06
44 *12:17 *127:8 0.00173699
45 *12:17 *127:25 0.000391132
46 *427:D *12:17 0.000330495
47 *615:D *12:17 9.86089e-05
48 *11:9 *12:17 6.26797e-05
*RES
1 trim[15] *12:17 37.936 
2 *12:17 *186:I 18.492 
3 *12:17 *458:D 4.5 
*END

*D_NET *13 0.014105
*CONN
*P trim[16] I
*I *473:D I *D gf180mcu_fd_sc_mcu7t5v0__latrnq_1
*I *188:I I *D gf180mcu_fd_sc_mcu7t5v0__antenna
*CAP
1 trim[16] 0.00149812
2 *473:D 0
3 *188:I 0.000762412
4 *13:9 0.00226053
5 *188:I *193:I 0.000560747
6 *188:I *466:I 9.22353e-05
7 *188:I *467:I 4.18157e-05
8 *188:I *508:I 0.000174577
9 *188:I *521:A1 0.0035126
10 *188:I *596:E 7.92342e-05
11 *188:I *77:10 0.00157023
12 *188:I *81:12 0.000156578
13 *188:I *165:12 0.000117456
14 *13:9 *473:RN 6.32895e-05
15 *13:9 *516:Z 0.000742777
16 *13:9 *520:I 0
17 *13:9 *521:A2 5.39182e-05
18 *13:9 *526:EN 0.000202011
19 *13:9 *14:9 5.78445e-05
20 *13:9 *43:100 0.000464713
21 *13:9 *43:107 0.000535357
22 *13:9 *43:111 0.00029919
23 *13:9 *110:10 0
24 *13:9 *119:6 0.00065147
25 *13:9 *119:17 6.61598e-05
26 *13:9 *145:12 3.98353e-05
27 *597:D *188:I 9.45935e-05
28 *12:17 *13:9 7.35039e-06
*RES
1 trim[16] *13:9 19.424 
2 *13:9 *188:I 26.396 
3 *13:9 *473:D 4.5 
*END

*D_NET *14 0.0129405
*CONN
*P trim[17] I
*I *488:D I *D gf180mcu_fd_sc_mcu7t5v0__latrnq_1
*I *190:I I *D gf180mcu_fd_sc_mcu7t5v0__antenna
*CAP
1 trim[17] 0.00106482
2 *488:D 2.15231e-05
3 *190:I 0.000381595
4 *14:9 0.00146794
5 *190:I *468:EN 0.000237629
6 *190:I *487:E 0.000191716
7 *190:I *491:A1 0.000137631
8 *190:I *510:I 7.17602e-05
9 *190:I *512:EN 1.71326e-05
10 *190:I *536:A1 9.03697e-05
11 *190:I *43:48 0
12 *190:I *93:20 1.40331e-05
13 *488:D *44:53 0.000594106
14 *14:9 *197:I 0.000555209
15 *14:9 *199:I 0.000111418
16 *14:9 *510:I 5.35362e-06
17 *14:9 *526:I 0.000215879
18 *14:9 *529:I 1.27019e-05
19 *14:9 *536:A1 1.26329e-05
20 *14:9 *536:A2 0.00104843
21 *14:9 *566:A2 1.52844e-05
22 *14:9 *15:21 6.16473e-06
23 *14:9 *31:13 0.000177356
24 *14:9 *46:6 8.0698e-05
25 *14:9 *46:33 0.000582256
26 *14:9 *115:36 0.000125263
27 *14:9 *145:12 0.0022073
28 *8:13 *190:I 0.000397744
29 *8:13 *14:9 0.00243285
30 *9:13 *488:D 0.000605853
31 *13:9 *14:9 5.78445e-05
*RES
1 trim[17] *14:9 22.128 
2 *14:9 *190:I 9.076 
3 *14:9 *488:D 15.06 
*END

*D_NET *15 0.0167612
*CONN
*P trim[18] I
*I *503:D I *D gf180mcu_fd_sc_mcu7t5v0__latrnq_1
*I *192:I I *D gf180mcu_fd_sc_mcu7t5v0__antenna
*CAP
1 trim[18] 0.00288803
2 *503:D 0
3 *192:I 0.000373653
4 *15:21 0.00326168
5 *192:I *461:A2 0
6 *192:I *503:E 2.47364e-05
7 *192:I *503:RN 0.000136751
8 *192:I *506:A1 0.000194511
9 *192:I *506:A2 0.000224849
10 *192:I *71:37 4.53894e-05
11 *15:21 *197:I 4.16439e-05
12 *15:21 *422:EN 6.38863e-05
13 *15:21 *422:I 0.000131821
14 *15:21 *423:EN 0
15 *15:21 *426:Z 1.60338e-05
16 *15:21 *430:I 0.000597939
17 *15:21 *431:A1 0.000430001
18 *15:21 *433:I 0.000214449
19 *15:21 *486:Z 0
20 *15:21 *503:E 6.18411e-06
21 *15:21 *506:A2 0.000528955
22 *15:21 *538:I 0.000859359
23 *15:21 *555:EN 0.000241749
24 *15:21 *555:I 0.000274404
25 *15:21 *559:I 0.0013192
26 *15:21 *564:I 0.00155817
27 *15:21 *566:A2 0.00259389
28 *15:21 *602:A2 0
29 *15:21 *16:17 3.7934e-06
30 *15:21 *30:19 9.96738e-05
31 *15:21 *31:13 0.000125273
32 *15:21 *39:10 0.000216423
33 *15:21 *44:12 0.000177803
34 *15:21 *47:25 9.35542e-06
35 *15:21 *71:37 7.93118e-05
36 *15:21 *93:10 2.39156e-06
37 *15:21 *95:10 0
38 *15:21 *139:14 1.37386e-05
39 *14:9 *15:21 6.16473e-06
*RES
1 trim[18] *15:21 38.976 
2 *15:21 *192:I 8.244 
3 *15:21 *503:D 4.5 
*END

*D_NET *16 0.0129253
*CONN
*P trim[19] I
*I *518:D I *D gf180mcu_fd_sc_mcu7t5v0__latrnq_1
*I *194:I I *D gf180mcu_fd_sc_mcu7t5v0__antenna
*CAP
1 trim[19] 0.00111264
2 *518:D 0
3 *194:I 0.00116841
4 *16:17 0.00228105
5 *194:I *508:I 0.000406961
6 *194:I *509:I 1.43411e-05
7 *194:I *514:I 0.000796039
8 *194:I *517:D 3.65102e-05
9 *194:I *517:E 0.000324247
10 *194:I *518:E 0.000122244
11 *194:I *521:A1 2.83652e-05
12 *194:I *573:I 0.000560736
13 *194:I *575:I 0.000262411
14 *194:I *582:E 0.00063947
15 *194:I *29:9 1.81504e-05
16 *194:I *43:79 0
17 *194:I *43:100 0
18 *194:I *44:53 0.000109708
19 *16:17 *509:I 5.64705e-05
20 *16:17 *511:I 1.23478e-05
21 *16:17 *518:E 0.000538444
22 *16:17 *521:A1 0.000259114
23 *16:17 *533:D 7.22055e-05
24 *16:17 *533:E 0
25 *16:17 *566:A2 9.9885e-05
26 *16:17 *18:7 2.41825e-05
27 *16:17 *30:19 0.000156201
28 *16:17 *31:13 0.000882744
29 *16:17 *43:107 2.0319e-05
30 *16:17 *44:53 0.000568841
31 *204:I *194:I 0.000264364
32 *9:13 *16:17 0.000107667
33 *10:13 *194:I 2.39523e-06
34 *10:13 *16:17 0.000752688
35 *11:9 *194:I 3.54704e-05
36 *11:9 *16:17 0.00118688
37 *15:21 *16:17 3.7934e-06
*RES
1 trim[19] *16:17 28.008 
2 *16:17 *194:I 16.98 
3 *16:17 *518:D 4.5 
*END

*D_NET *17 0.0196938
*CONN
*P trim[1] I
*I *596:D I *D gf180mcu_fd_sc_mcu7t5v0__latrnq_1
*I *203:I I *D gf180mcu_fd_sc_mcu7t5v0__antenna
*CAP
1 trim[1] 0.000567482
2 *596:D 0.000170644
3 *203:I 0.00144251
4 *17:9 0.00218064
5 *203:I *449:I 0.000538761
6 *203:I *457:D 0.00318457
7 *203:I *459:I 5.03503e-05
8 *203:I *577:EN 0.00308716
9 *203:I *584:I 0.00430187
10 *203:I *592:EN 4.57403e-06
11 *203:I *598:I 0.00127733
12 *203:I *599:I 0
13 *203:I *24:11 0.00122252
14 *203:I *152:12 0.000328818
15 *203:I *161:8 0.000120708
16 *596:D *580:Z 0
17 *596:D *582:RN 0
18 *596:D *596:E 7.87395e-06
19 *17:9 *575:I 0
20 *17:9 *582:RN 0
21 *17:9 *24:11 9.03092e-05
22 *17:9 *44:53 0.000783644
23 *202:I *203:I 0
24 *202:I *17:9 0.000288749
25 *6:9 *17:9 1.76031e-05
26 *10:13 *17:9 2.76472e-05
*RES
1 trim[1] *17:9 10.272 
2 *17:9 *203:I 40.436 
3 *17:9 *596:D 5.436 
*END

*D_NET *18 0.00291573
*CONN
*P trim[20] I
*I *196:I I *D gf180mcu_fd_sc_mcu7t5v0__antenna
*I *533:D I *D gf180mcu_fd_sc_mcu7t5v0__latrnq_1
*CAP
1 trim[20] 0.000167678
2 *196:I 0
3 *533:D 0.000578214
4 *18:7 0.000745892