* NGSPICE file created from ring_osc2x13.ext - technology: gf180mcuD

* Black-box entry subcircuit for gf180mcu_fd_sc_mcu7t5v0__latrnq_1 abstract view
.subckt gf180mcu_fd_sc_mcu7t5v0__latrnq_1 D E RN Q VDD VNW VPW VSS
.ends

* Black-box entry subcircuit for gf180mcu_fd_sc_mcu7t5v0__filltie abstract view
.subckt gf180mcu_fd_sc_mcu7t5v0__filltie VDD VSS
.ends

* Black-box entry subcircuit for gf180mcu_fd_sc_mcu7t5v0__fillcap_4 abstract view
.subckt gf180mcu_fd_sc_mcu7t5v0__fillcap_4 VDD VNW VPW VSS
.ends

* Black-box entry subcircuit for gf180mcu_fd_sc_mcu7t5v0__invz_8 abstract view
.subckt gf180mcu_fd_sc_mcu7t5v0__invz_8 EN I ZN VDD VNW VPW VSS
.ends

* Black-box entry subcircuit for gf180mcu_fd_sc_mcu7t5v0__invz_2 abstract view
.subckt gf180mcu_fd_sc_mcu7t5v0__invz_2 EN I ZN VDD VNW VPW VSS
.ends

* Black-box entry subcircuit for gf180mcu_fd_sc_mcu7t5v0__hold abstract view
.subckt gf180mcu_fd_sc_mcu7t5v0__hold Z VDD VNW VPW VSS
.ends

* Black-box entry subcircuit for gf180mcu_fd_sc_mcu7t5v0__clkbuf_2 abstract view
.subckt gf180mcu_fd_sc_mcu7t5v0__clkbuf_2 I Z VDD VNW VPW VSS
.ends

* Black-box entry subcircuit for gf180mcu_fd_sc_mcu7t5v0__fill_2 abstract view
.subckt gf180mcu_fd_sc_mcu7t5v0__fill_2 VDD VNW VPW VSS
.ends

* Black-box entry subcircuit for gf180mcu_fd_sc_mcu7t5v0__inv_1 abstract view
.subckt gf180mcu_fd_sc_mcu7t5v0__inv_1 I ZN VDD VNW VPW VSS
.ends

* Black-box entry subcircuit for gf180mcu_fd_sc_mcu7t5v0__xor2_1 abstract view
.subckt gf180mcu_fd_sc_mcu7t5v0__xor2_1 A1 A2 Z VDD VNW VPW VSS
.ends

* Black-box entry subcircuit for gf180mcu_fd_sc_mcu7t5v0__endcap abstract view
.subckt gf180mcu_fd_sc_mcu7t5v0__endcap VDD VSS
.ends

* Black-box entry subcircuit for gf180mcu_fd_sc_mcu7t5v0__fill_1 abstract view
.subckt gf180mcu_fd_sc_mcu7t5v0__fill_1 VDD VNW VPW VSS
.ends

* Black-box entry subcircuit for gf180mcu_fd_sc_mcu7t5v0__invz_4 abstract view
.subckt gf180mcu_fd_sc_mcu7t5v0__invz_4 EN I ZN VDD VNW VPW VSS
.ends

* Black-box entry subcircuit for gf180mcu_fd_sc_mcu7t5v0__fillcap_8 abstract view
.subckt gf180mcu_fd_sc_mcu7t5v0__fillcap_8 VDD VNW VPW VSS
.ends

* Black-box entry subcircuit for gf180mcu_fd_sc_mcu7t5v0__and2_2 abstract view
.subckt gf180mcu_fd_sc_mcu7t5v0__and2_2 A1 A2 Z VDD VNW VPW VSS
.ends

* Black-box entry subcircuit for gf180mcu_fd_sc_mcu7t5v0__antenna abstract view
.subckt gf180mcu_fd_sc_mcu7t5v0__antenna I VDD VNW VPW VSS
.ends

* Black-box entry subcircuit for gf180mcu_fd_sc_mcu7t5v0__clkbuf_1 abstract view
.subckt gf180mcu_fd_sc_mcu7t5v0__clkbuf_1 I Z VDD VNW VPW VSS
.ends

* Black-box entry subcircuit for gf180mcu_fd_sc_mcu7t5v0__clkinv_2 abstract view
.subckt gf180mcu_fd_sc_mcu7t5v0__clkinv_2 I ZN VDD VNW VPW VSS
.ends

* Black-box entry subcircuit for gf180mcu_fd_sc_mcu7t5v0__tieh abstract view
.subckt gf180mcu_fd_sc_mcu7t5v0__tieh Z VDD VNW VPW VSS
.ends

* Black-box entry subcircuit for gf180mcu_fd_sc_mcu7t5v0__invz_1 abstract view
.subckt gf180mcu_fd_sc_mcu7t5v0__invz_1 EN I ZN VDD VNW VPW VSS
.ends

* Black-box entry subcircuit for gf180mcu_fd_sc_mcu7t5v0__fillcap_16 abstract view
.subckt gf180mcu_fd_sc_mcu7t5v0__fillcap_16 VDD VNW VPW VSS
.ends

* Black-box entry subcircuit for gf180mcu_fd_sc_mcu7t5v0__nor2_2 abstract view
.subckt gf180mcu_fd_sc_mcu7t5v0__nor2_2 A1 A2 ZN VDD VNW VPW VSS
.ends

* Black-box entry subcircuit for gf180mcu_fd_sc_mcu7t5v0__clkinv_1 abstract view
.subckt gf180mcu_fd_sc_mcu7t5v0__clkinv_1 I ZN VDD VNW VPW VSS
.ends

* Black-box entry subcircuit for gf180mcu_fd_sc_mcu7t5v0__dlyb_1 abstract view
.subckt gf180mcu_fd_sc_mcu7t5v0__dlyb_1 I Z VDD VNW VPW VSS
.ends

* Black-box entry subcircuit for gf180mcu_fd_sc_mcu7t5v0__clkinv_8 abstract view
.subckt gf180mcu_fd_sc_mcu7t5v0__clkinv_8 I ZN VDD VNW VPW VSS
.ends

* Black-box entry subcircuit for gf180mcu_fd_sc_mcu7t5v0__inv_2 abstract view
.subckt gf180mcu_fd_sc_mcu7t5v0__inv_2 I ZN VDD VNW VPW VSS
.ends

.subckt ring_osc2x13 VDD VSS clockp[0] clockp[1] reset trim[0] trim[10] trim[11] trim[12]
+ trim[13] trim[14] trim[15] trim[16] trim[17] trim[18] trim[19] trim[1] trim[20]
+ trim[21] trim[22] trim[23] trim[24] trim[25] trim[2] trim[3] trim[4] trim[5] trim[6]
+ trim[7] trim[8] trim[9]
Xdstage\[10\].id.t0_latch trim[10] dstage\[10\].id.t1_latch/E _0_/ZN dstage\[10\].id.trim0bar/I
+ VDD VDD VSS VSS gf180mcu_fd_sc_mcu7t5v0__latrnq_1
XTAP_TAPCELL_ROW_5_56 VDD VSS gf180mcu_fd_sc_mcu7t5v0__filltie
Xdstage\[2\].id.t1_latch trim[15] dstage\[2\].id.t1_latch/E _0_/ZN dstage\[2\].id.trim1bar/I
+ VDD VDD VSS VSS gf180mcu_fd_sc_mcu7t5v0__latrnq_1
XTAP_TAPCELL_ROW_20_87 VDD VSS gf180mcu_fd_sc_mcu7t5v0__filltie
XFILLER_19_150 VDD VDD VSS VSS gf180mcu_fd_sc_mcu7t5v0__fillcap_4
Xdstage\[8\].id.delayenb0 dstage\[8\].id.trim0bar/ZN dstage\[8\].id.delayenb1/I dstage\[8\].id.hold_out/Z
+ VDD VDD VSS VSS gf180mcu_fd_sc_mcu7t5v0__invz_8
Xdstage\[5\].id.delayen0 dstage\[5\].id.trim0bar/I dstage\[5\].id.delayen0/I ibufp10/I
+ VDD VDD VSS VSS gf180mcu_fd_sc_mcu7t5v0__invz_2
XTAP_TAPCELL_ROW_15_76 VDD VSS gf180mcu_fd_sc_mcu7t5v0__filltie
XFILLER_16_131 VDD VDD VSS VSS gf180mcu_fd_sc_mcu7t5v0__fillcap_4
Xdstage\[5\].id.hold_d1 dstage\[5\].id.hold_d1/Z VDD VDD VSS VSS gf180mcu_fd_sc_mcu7t5v0__hold
Xdstage\[4\].id.deglitch_buf dstage\[4\].id.hold_out/Z dstage\[4\].id.deglitch_buf/Z
+ VDD VDD VSS VSS gf180mcu_fd_sc_mcu7t5v0__clkbuf_2
XFILLER_9_138 VDD VDD VSS VSS gf180mcu_fd_sc_mcu7t5v0__fill_2
Xdstage\[5\].id.trim1bar dstage\[5\].id.trim1bar/I dstage\[5\].id.trim1bar/ZN VDD
+ VDD VSS VSS gf180mcu_fd_sc_mcu7t5v0__inv_1
Xdstage\[7\].id.trim_inhibit dstage\[4\].id.hold_out/Z dstage\[7\].id.deglitch_buf/Z
+ dstage\[7\].id.t1_latch/E VDD VDD VSS VSS gf180mcu_fd_sc_mcu7t5v0__xor2_1
XPHY_EDGE_ROW_21_Right_21 VDD VSS gf180mcu_fd_sc_mcu7t5v0__endcap
XPHY_EDGE_ROW_12_Right_12 VDD VSS gf180mcu_fd_sc_mcu7t5v0__endcap
XFILLER_3_2 VDD VDD VSS VSS gf180mcu_fd_sc_mcu7t5v0__fill_1
XTAP_TAPCELL_ROW_5_57 VDD VSS gf180mcu_fd_sc_mcu7t5v0__filltie
XFILLER_18_98 VDD VDD VSS VSS gf180mcu_fd_sc_mcu7t5v0__fill_1
XPHY_EDGE_ROW_16_Left_38 VDD VSS gf180mcu_fd_sc_mcu7t5v0__endcap
Xdstage\[8\].id.delayenb1 dstage\[8\].id.trim1bar/ZN dstage\[8\].id.delayenb1/I dstage\[8\].id.hold_d1/Z
+ VDD VDD VSS VSS gf180mcu_fd_sc_mcu7t5v0__invz_4
Xdstage\[5\].id.delayen1 dstage\[5\].id.trim1bar/I dstage\[5\].id.delayen1/I dstage\[5\].id.hold_d1/Z
+ VDD VDD VSS VSS gf180mcu_fd_sc_mcu7t5v0__invz_2
XTAP_TAPCELL_ROW_15_77 VDD VSS gf180mcu_fd_sc_mcu7t5v0__filltie
XPHY_EDGE_ROW_6_Right_6 VDD VSS gf180mcu_fd_sc_mcu7t5v0__endcap
Xdstage\[11\].id.delayenb0 dstage\[11\].id.trim0bar/ZN dstage\[11\].id.delayenb1/I
+ iss.delayenb1/I VDD VDD VSS VSS gf180mcu_fd_sc_mcu7t5v0__invz_8
Xdstage\[2\].id.t0_latch trim[2] dstage\[2\].id.t1_latch/E _0_/ZN dstage\[2\].id.trim0bar/I
+ VDD VDD VSS VSS gf180mcu_fd_sc_mcu7t5v0__latrnq_1
XFILLER_13_146 VDD VDD VSS VSS gf180mcu_fd_sc_mcu7t5v0__fillcap_8
Xiss.delayenb0 iss.ctrlen0/ZN iss.delayenb1/I iss.cg_and/A1 VDD VDD VSS VSS gf180mcu_fd_sc_mcu7t5v0__invz_8
XPHY_EDGE_ROW_19_Left_41 VDD VSS gf180mcu_fd_sc_mcu7t5v0__endcap
XFILLER_5_142 VDD VDD VSS VSS gf180mcu_fd_sc_mcu7t5v0__fillcap_8
Xdstage\[4\].id.trim0bar dstage\[4\].id.trim0bar/I dstage\[4\].id.trim0bar/ZN VDD
+ VDD VSS VSS gf180mcu_fd_sc_mcu7t5v0__inv_1
XPHY_EDGE_ROW_4_Left_26 VDD VSS gf180mcu_fd_sc_mcu7t5v0__endcap
XFILLER_2_145 VDD VDD VSS VSS gf180mcu_fd_sc_mcu7t5v0__fillcap_8
Xdstage\[11\].id.delayenb1 dstage\[11\].id.trim1bar/ZN dstage\[11\].id.delayenb1/I
+ dstage\[11\].id.hold_d1/Z VDD VDD VSS VSS gf180mcu_fd_sc_mcu7t5v0__invz_4
XFILLER_16_144 VDD VDD VSS VSS gf180mcu_fd_sc_mcu7t5v0__fillcap_8
XFILLER_11_2 VDD VDD VSS VSS gf180mcu_fd_sc_mcu7t5v0__fill_1
Xdstage\[8\].id.delaybuf0 dstage\[7\].id.hold_out/Z dstage\[8\].id.delayenb1/I VDD
+ VDD VSS VSS gf180mcu_fd_sc_mcu7t5v0__clkbuf_2
Xiss.cg_and iss.cg_and/A1 iss.cg_and/A2 ibufp00/I VDD VDD VSS VSS gf180mcu_fd_sc_mcu7t5v0__and2_2
Xdstage\[4\].id.delayenb0 dstage\[4\].id.trim0bar/ZN dstage\[4\].id.delayenb1/I dstage\[4\].id.hold_out/Z
+ VDD VDD VSS VSS gf180mcu_fd_sc_mcu7t5v0__invz_8
XANTENNA_id0.t1_latch_D trim[13] VDD VDD VSS VSS gf180mcu_fd_sc_mcu7t5v0__antenna
Xiss.delayenb1 iss.trim1bar/ZN iss.delayenb1/I iss.hold_d1/Z VDD VDD VSS VSS gf180mcu_fd_sc_mcu7t5v0__invz_4
Xdstage\[10\].id.delayen0 dstage\[10\].id.trim0bar/I dstage\[10\].id.delayen0/I id0.trim_inhibit/A1
+ VDD VDD VSS VSS gf180mcu_fd_sc_mcu7t5v0__invz_2
XPHY_EDGE_ROW_20_Left_42 VDD VSS gf180mcu_fd_sc_mcu7t5v0__endcap
XANTENNA_dstage\[8\].id.t1_latch_D trim[21] VDD VDD VSS VSS gf180mcu_fd_sc_mcu7t5v0__antenna
Xdstage\[10\].id.trim1bar dstage\[10\].id.trim1bar/I dstage\[10\].id.trim1bar/ZN VDD
+ VDD VSS VSS gf180mcu_fd_sc_mcu7t5v0__inv_1
XFILLER_6_37 VDD VDD VSS VSS gf180mcu_fd_sc_mcu7t5v0__fill_1
XFILLER_19_142 VDD VDD VSS VSS gf180mcu_fd_sc_mcu7t5v0__fillcap_8
Xdstage\[8\].id.delaybuf1 dstage\[8\].id.delayenb1/I dstage\[8\].id.delayen1/I VDD
+ VDD VSS VSS gf180mcu_fd_sc_mcu7t5v0__clkbuf_1
Xdstage\[4\].id.delayenb1 dstage\[4\].id.trim1bar/ZN dstage\[4\].id.delayenb1/I dstage\[4\].id.hold_d1/Z
+ VDD VDD VSS VSS gf180mcu_fd_sc_mcu7t5v0__invz_4
XFILLER_13_137 VDD VDD VSS VSS gf180mcu_fd_sc_mcu7t5v0__fill_2
Xdstage\[11\].id.delaybuf0 id0.trim_inhibit/A1 dstage\[11\].id.delayenb1/I VDD VDD
+ VSS VSS gf180mcu_fd_sc_mcu7t5v0__clkbuf_2
Xdstage\[10\].id.delayen1 dstage\[10\].id.trim1bar/I dstage\[10\].id.delayen1/I dstage\[10\].id.hold_d1/Z
+ VDD VDD VSS VSS gf180mcu_fd_sc_mcu7t5v0__invz_2
Xiss.delaybuf0 iss.delayenb1/I iss.delayen1/I VDD VDD VSS VSS gf180mcu_fd_sc_mcu7t5v0__clkbuf_1
Xdstage\[2\].id.trim_inhibit ibufp00/I dstage\[2\].id.deglitch_buf/Z dstage\[2\].id.t1_latch/E
+ VDD VDD VSS VSS gf180mcu_fd_sc_mcu7t5v0__xor2_1
XFILLER_1_2 VDD VDD VSS VSS gf180mcu_fd_sc_mcu7t5v0__fill_1
Xdstage\[2\].id.delayen0 dstage\[2\].id.trim0bar/I dstage\[2\].id.delayen0/I dstage\[2\].id.hold_out/Z
+ VDD VDD VSS VSS gf180mcu_fd_sc_mcu7t5v0__invz_2
XTAP_TAPCELL_ROW_21_90 VDD VSS gf180mcu_fd_sc_mcu7t5v0__filltie
XPHY_EDGE_ROW_19_Right_19 VDD VSS gf180mcu_fd_sc_mcu7t5v0__endcap
XFILLER_16_102 VDD VDD VSS VSS gf180mcu_fd_sc_mcu7t5v0__fill_2
Xid1.hold_out id1.hold_out/Z VDD VDD VSS VSS gf180mcu_fd_sc_mcu7t5v0__hold
Xdstage\[7\].id.hold_out dstage\[7\].id.hold_out/Z VDD VDD VSS VSS gf180mcu_fd_sc_mcu7t5v0__hold
Xdstage\[2\].id.trim1bar dstage\[2\].id.trim1bar/I dstage\[2\].id.trim1bar/ZN VDD
+ VDD VSS VSS gf180mcu_fd_sc_mcu7t5v0__inv_1
Xdstage\[11\].id.delaybuf1 dstage\[11\].id.delayenb1/I dstage\[11\].id.delayen1/I
+ VDD VDD VSS VSS gf180mcu_fd_sc_mcu7t5v0__clkbuf_1
XANTENNA_dstage\[3\].id.t1_latch_D trim[16] VDD VDD VSS VSS gf180mcu_fd_sc_mcu7t5v0__antenna
Xdstage\[4\].id.delaybuf0 dstage\[3\].id.hold_out/Z dstage\[4\].id.delayenb1/I VDD
+ VDD VSS VSS gf180mcu_fd_sc_mcu7t5v0__clkbuf_2
Xdstage\[7\].id.delayint0 dstage\[7\].id.hold_d1/Z dstage\[7\].id.delayen0/I VDD VDD
+ VSS VSS gf180mcu_fd_sc_mcu7t5v0__clkinv_2
XFILLER_2_104 VDD VDD VSS VSS gf180mcu_fd_sc_mcu7t5v0__fill_1
Xdstage\[2\].id.delayen1 dstage\[2\].id.trim1bar/I dstage\[2\].id.delayen1/I dstage\[2\].id.hold_d1/Z
+ VDD VDD VSS VSS gf180mcu_fd_sc_mcu7t5v0__invz_2
XFILLER_19_133 VDD VDD VSS VSS gf180mcu_fd_sc_mcu7t5v0__fillcap_4
XFILLER_15_48 VDD VDD VSS VSS gf180mcu_fd_sc_mcu7t5v0__fill_1
XANTENNA_dstage\[7\].id.t0_latch_D trim[7] VDD VDD VSS VSS gf180mcu_fd_sc_mcu7t5v0__antenna
XTAP_TAPCELL_ROW_21_91 VDD VSS gf180mcu_fd_sc_mcu7t5v0__filltie
XFILLER_13_139 VDD VDD VSS VSS gf180mcu_fd_sc_mcu7t5v0__fill_1
Xdstage\[7\].id.t1_latch trim[20] dstage\[7\].id.t1_latch/E _0_/ZN dstage\[7\].id.trim1bar/I
+ VDD VDD VSS VSS gf180mcu_fd_sc_mcu7t5v0__latrnq_1
Xid1.t1_latch trim[14] id1.t1_latch/E _0_/ZN id1.trim1bar/I VDD VDD VSS VSS gf180mcu_fd_sc_mcu7t5v0__latrnq_1
Xdstage\[7\].id.deglitch_buf dstage\[7\].id.hold_out/Z dstage\[7\].id.deglitch_buf/Z
+ VDD VDD VSS VSS gf180mcu_fd_sc_mcu7t5v0__clkbuf_2
Xdstage\[4\].id.delaybuf1 dstage\[4\].id.delayenb1/I dstage\[4\].id.delayen1/I VDD
+ VDD VSS VSS gf180mcu_fd_sc_mcu7t5v0__clkbuf_1
XFILLER_5_135 VDD VDD VSS VSS gf180mcu_fd_sc_mcu7t5v0__fillcap_4
Xdstage\[10\].id.delayint0 dstage\[10\].id.hold_d1/Z dstage\[10\].id.delayen0/I VDD
+ VDD VSS VSS gf180mcu_fd_sc_mcu7t5v0__clkinv_2
XPHY_EDGE_ROW_11_Left_33 VDD VSS gf180mcu_fd_sc_mcu7t5v0__endcap
XPHY_EDGE_ROW_1_Right_1 VDD VSS gf180mcu_fd_sc_mcu7t5v0__endcap
XFILLER_16_104 VDD VDD VSS VSS gf180mcu_fd_sc_mcu7t5v0__fill_1
XFILLER_7_72 VDD VDD VSS VSS gf180mcu_fd_sc_mcu7t5v0__fill_1
Xid1.t0_latch trim[1] id1.t1_latch/E _0_/ZN id1.trim0bar/I VDD VDD VSS VSS gf180mcu_fd_sc_mcu7t5v0__latrnq_1
Xdstage\[7\].id.t0_latch trim[7] dstage\[7\].id.t1_latch/E _0_/ZN dstage\[7\].id.trim0bar/I
+ VDD VDD VSS VSS gf180mcu_fd_sc_mcu7t5v0__latrnq_1
XFILLER_1_150 VDD VDD VSS VSS gf180mcu_fd_sc_mcu7t5v0__fillcap_4
Xdstage\[3\].id.delayint0 dstage\[3\].id.hold_d1/Z dstage\[3\].id.delayen0/I VDD VDD
+ VSS VSS gf180mcu_fd_sc_mcu7t5v0__clkinv_2
XANTENNA_dstage\[2\].id.t0_latch_D trim[2] VDD VDD VSS VSS gf180mcu_fd_sc_mcu7t5v0__antenna
Xdstage\[9\].id.trim0bar dstage\[9\].id.trim0bar/I dstage\[9\].id.trim0bar/ZN VDD
+ VDD VSS VSS gf180mcu_fd_sc_mcu7t5v0__inv_1
XPHY_EDGE_ROW_15_Right_15 VDD VSS gf180mcu_fd_sc_mcu7t5v0__endcap
XTAP_TAPCELL_ROW_3_52 VDD VSS gf180mcu_fd_sc_mcu7t5v0__filltie
Xdstage\[6\].id.hold_d1 dstage\[6\].id.hold_d1/Z VDD VDD VSS VSS gf180mcu_fd_sc_mcu7t5v0__hold
XTAP_TAPCELL_ROW_13_72 VDD VSS gf180mcu_fd_sc_mcu7t5v0__filltie
XFILLER_13_72 VDD VDD VSS VSS gf180mcu_fd_sc_mcu7t5v0__fill_1
Xid0.hold_d1 id0.hold_d1/Z VDD VDD VSS VSS gf180mcu_fd_sc_mcu7t5v0__hold
XFILLER_21_72 VDD VDD VSS VSS gf180mcu_fd_sc_mcu7t5v0__fill_1
XFILLER_15_150 VDD VDD VSS VSS gf180mcu_fd_sc_mcu7t5v0__fillcap_4
XANTENNA_id1.t0_latch_D trim[1] VDD VDD VSS VSS gf180mcu_fd_sc_mcu7t5v0__antenna
Xid0.trim0bar id0.trim0bar/I id0.trim0bar/ZN VDD VDD VSS VSS gf180mcu_fd_sc_mcu7t5v0__inv_1
Xdstage\[4\].id.hold_out dstage\[4\].id.hold_out/Z VDD VDD VSS VSS gf180mcu_fd_sc_mcu7t5v0__hold
XTAP_TAPCELL_ROW_3_53 VDD VSS gf180mcu_fd_sc_mcu7t5v0__filltie
XTAP_TAPCELL_ROW_13_73 VDD VSS gf180mcu_fd_sc_mcu7t5v0__filltie
XFILLER_4_53 VDD VDD VSS VSS gf180mcu_fd_sc_mcu7t5v0__fill_1
Xdstage\[2\].id.deglitch_buf dstage\[2\].id.hold_out/Z dstage\[2\].id.deglitch_buf/Z
+ VDD VDD VSS VSS gf180mcu_fd_sc_mcu7t5v0__clkbuf_2
Xdstage\[5\].id.trim_inhibit dstage\[2\].id.hold_out/Z dstage\[5\].id.deglitch_buf/Z
+ dstage\[5\].id.t1_latch/E VDD VDD VSS VSS gf180mcu_fd_sc_mcu7t5v0__xor2_1
XFILLER_19_72 VDD VDD VSS VSS gf180mcu_fd_sc_mcu7t5v0__fill_1
XFILLER_19_137 VDD VDD VSS VSS gf180mcu_fd_sc_mcu7t5v0__fill_2
XFILLER_18_2 VDD VDD VSS VSS gf180mcu_fd_sc_mcu7t5v0__fill_1
XPHY_EDGE_ROW_15_Left_37 VDD VSS gf180mcu_fd_sc_mcu7t5v0__endcap
Xdstage\[4\].id.t1_latch trim[17] dstage\[4\].id.t1_latch/E _0_/ZN dstage\[4\].id.trim1bar/I
+ VDD VDD VSS VSS gf180mcu_fd_sc_mcu7t5v0__latrnq_1
XPHY_EDGE_ROW_5_Right_5 VDD VSS gf180mcu_fd_sc_mcu7t5v0__endcap
Xid1.delayen0 id1.trim0bar/I id1.delayen0/I id1.hold_out/Z VDD VDD VSS VSS gf180mcu_fd_sc_mcu7t5v0__invz_2
Xdstage\[7\].id.delayen0 dstage\[7\].id.trim0bar/I dstage\[7\].id.delayen0/I dstage\[7\].id.hold_out/Z
+ VDD VDD VSS VSS gf180mcu_fd_sc_mcu7t5v0__invz_2
XFILLER_5_139 VDD VDD VSS VSS gf180mcu_fd_sc_mcu7t5v0__fill_1
Xdstage\[7\].id.delayenb0 dstage\[7\].id.trim0bar/ZN dstage\[7\].id.delayenb1/I dstage\[7\].id.hold_out/Z
+ VDD VDD VSS VSS gf180mcu_fd_sc_mcu7t5v0__invz_8
XFILLER_4_150 VDD VDD VSS VSS gf180mcu_fd_sc_mcu7t5v0__fillcap_4
XANTENNA_dstage\[9\].id.t1_latch_D trim[22] VDD VDD VSS VSS gf180mcu_fd_sc_mcu7t5v0__antenna
XTAP_TAPCELL_ROW_0_44 VDD VSS gf180mcu_fd_sc_mcu7t5v0__filltie
XPHY_EDGE_ROW_18_Left_40 VDD VSS gf180mcu_fd_sc_mcu7t5v0__endcap
XFILLER_1_142 VDD VDD VSS VSS gf180mcu_fd_sc_mcu7t5v0__fillcap_8
XTAP_TAPCELL_ROW_9_64 VDD VSS gf180mcu_fd_sc_mcu7t5v0__filltie
Xid1.trim1bar id1.trim1bar/I id1.trim1bar/ZN VDD VDD VSS VSS gf180mcu_fd_sc_mcu7t5v0__inv_1
XPHY_EDGE_ROW_3_Left_25 VDD VSS gf180mcu_fd_sc_mcu7t5v0__endcap
Xdstage\[7\].id.trim1bar dstage\[7\].id.trim1bar/I dstage\[7\].id.trim1bar/ZN VDD
+ VDD VSS VSS gf180mcu_fd_sc_mcu7t5v0__inv_1
Xiss.reseten0_1 iss.reseten0/I VDD VDD VSS VSS gf180mcu_fd_sc_mcu7t5v0__tieh
Xdstage\[10\].id.trim_inhibit dstage\[7\].id.hold_out/Z dstage\[10\].id.deglitch_buf/Z
+ dstage\[10\].id.t1_latch/E VDD VDD VSS VSS gf180mcu_fd_sc_mcu7t5v0__xor2_1
XTAP_TAPCELL_ROW_19_84 VDD VSS gf180mcu_fd_sc_mcu7t5v0__filltie
Xiss.reseten0 reset iss.reseten0/I iss.cg_and/A1 VDD VDD VSS VSS gf180mcu_fd_sc_mcu7t5v0__invz_1
XPHY_EDGE_ROW_20_Right_20 VDD VSS gf180mcu_fd_sc_mcu7t5v0__endcap
XPHY_EDGE_ROW_11_Right_11 VDD VSS gf180mcu_fd_sc_mcu7t5v0__endcap
XFILLER_8_104 VDD VDD VSS VSS gf180mcu_fd_sc_mcu7t5v0__fill_1
Xid1.delayen1 id1.trim1bar/I id1.delayen1/I id1.hold_d1/Z VDD VDD VSS VSS gf180mcu_fd_sc_mcu7t5v0__invz_2
Xdstage\[7\].id.delayen1 dstage\[7\].id.trim1bar/I dstage\[7\].id.delayen1/I dstage\[7\].id.hold_d1/Z
+ VDD VDD VSS VSS gf180mcu_fd_sc_mcu7t5v0__invz_2
Xdstage\[4\].id.t0_latch trim[4] dstage\[4\].id.t1_latch/E _0_/ZN dstage\[4\].id.trim0bar/I
+ VDD VDD VSS VSS gf180mcu_fd_sc_mcu7t5v0__latrnq_1
Xdstage\[7\].id.delayenb1 dstage\[7\].id.trim1bar/ZN dstage\[7\].id.delayenb1/I dstage\[7\].id.hold_d1/Z
+ VDD VDD VSS VSS gf180mcu_fd_sc_mcu7t5v0__invz_4
Xdstage\[10\].id.delayenb0 dstage\[10\].id.trim0bar/ZN dstage\[10\].id.delayenb1/I
+ id0.trim_inhibit/A1 VDD VDD VSS VSS gf180mcu_fd_sc_mcu7t5v0__invz_8
XTAP_TAPCELL_ROW_9_65 VDD VSS gf180mcu_fd_sc_mcu7t5v0__filltie
XTAP_TAPCELL_ROW_0_45 VDD VSS gf180mcu_fd_sc_mcu7t5v0__filltie
XFILLER_8_2 VDD VDD VSS VSS gf180mcu_fd_sc_mcu7t5v0__fill_1
Xid1.delayint0 id1.hold_d1/Z id1.delayen0/I VDD VDD VSS VSS gf180mcu_fd_sc_mcu7t5v0__clkinv_2
Xdstage\[6\].id.trim0bar dstage\[6\].id.trim0bar/I dstage\[6\].id.trim0bar/ZN VDD
+ VDD VSS VSS gf180mcu_fd_sc_mcu7t5v0__inv_1
XTAP_TAPCELL_ROW_19_85 VDD VSS gf180mcu_fd_sc_mcu7t5v0__filltie
XFILLER_19_139 VDD VDD VSS VSS gf180mcu_fd_sc_mcu7t5v0__fill_1
XFILLER_18_150 VDD VDD VSS VSS gf180mcu_fd_sc_mcu7t5v0__fillcap_4
XFILLER_15_142 VDD VDD VSS VSS gf180mcu_fd_sc_mcu7t5v0__fillcap_8
XFILLER_21_134 VDD VDD VSS VSS gf180mcu_fd_sc_mcu7t5v0__fill_2
XFILLER_21_101 VDD VDD VSS VSS gf180mcu_fd_sc_mcu7t5v0__fill_1
XANTENNA_dstage\[4\].id.t1_latch_D trim[17] VDD VDD VSS VSS gf180mcu_fd_sc_mcu7t5v0__antenna
XANTENNA_id0.t0_latch_D trim[0] VDD VDD VSS VSS gf180mcu_fd_sc_mcu7t5v0__antenna
XFILLER_4_34 VDD VDD VSS VSS gf180mcu_fd_sc_mcu7t5v0__fill_1
Xdstage\[10\].id.delayenb1 dstage\[10\].id.trim1bar/ZN dstage\[10\].id.delayenb1/I
+ dstage\[10\].id.hold_d1/Z VDD VDD VSS VSS gf180mcu_fd_sc_mcu7t5v0__invz_4
XTAP_TAPCELL_ROW_0_46 VDD VSS gf180mcu_fd_sc_mcu7t5v0__filltie
Xid0.trim_inhibit id0.trim_inhibit/A1 id0.deglitch_buf/Z id0.t1_latch/E VDD VDD VSS
+ VSS gf180mcu_fd_sc_mcu7t5v0__xor2_1
Xdstage\[7\].id.delaybuf0 dstage\[6\].id.hold_out/Z dstage\[7\].id.delayenb1/I VDD
+ VDD VSS VSS gf180mcu_fd_sc_mcu7t5v0__clkbuf_2
Xdstage\[3\].id.delayenb0 dstage\[3\].id.trim0bar/ZN dstage\[3\].id.delayenb1/I dstage\[3\].id.hold_out/Z
+ VDD VDD VSS VSS gf180mcu_fd_sc_mcu7t5v0__invz_8
XANTENNA_dstage\[8\].id.t0_latch_D trim[8] VDD VDD VSS VSS gf180mcu_fd_sc_mcu7t5v0__antenna
XTAP_TAPCELL_ROW_10_66 VDD VSS gf180mcu_fd_sc_mcu7t5v0__filltie
XFILLER_16_2 VDD VDD VSS VSS gf180mcu_fd_sc_mcu7t5v0__fill_1
XFILLER_12_146 VDD VDD VSS VSS gf180mcu_fd_sc_mcu7t5v0__fillcap_8
XFILLER_16_87 VDD VDD VSS VSS gf180mcu_fd_sc_mcu7t5v0__fill_1
XPHY_EDGE_ROW_9_Right_9 VDD VSS gf180mcu_fd_sc_mcu7t5v0__endcap
XTAP_TAPCELL_ROW_0_47 VDD VSS gf180mcu_fd_sc_mcu7t5v0__filltie
Xdstage\[7\].id.delaybuf1 dstage\[7\].id.delayenb1/I dstage\[7\].id.delayen1/I VDD
+ VDD VSS VSS gf180mcu_fd_sc_mcu7t5v0__clkbuf_1
Xdstage\[3\].id.delayenb1 dstage\[3\].id.trim1bar/ZN dstage\[3\].id.delayenb1/I dstage\[3\].id.hold_d1/Z
+ VDD VDD VSS VSS gf180mcu_fd_sc_mcu7t5v0__invz_4
Xdstage\[10\].id.delaybuf0 iss.trim_inhibit/A1 dstage\[10\].id.delayenb1/I VDD VDD
+ VSS VSS gf180mcu_fd_sc_mcu7t5v0__clkbuf_2
XFILLER_1_69 VDD VDD VSS VSS gf180mcu_fd_sc_mcu7t5v0__fill_1
XFILLER_1_25 VDD VDD VSS VSS gf180mcu_fd_sc_mcu7t5v0__fill_1
XTAP_TAPCELL_ROW_10_67 VDD VSS gf180mcu_fd_sc_mcu7t5v0__filltie
XPHY_EDGE_ROW_7_Left_29 VDD VSS gf180mcu_fd_sc_mcu7t5v0__endcap
XTAP_TAPCELL_ROW_21_88 VDD VSS gf180mcu_fd_sc_mcu7t5v0__filltie
XFILLER_15_111 VDD VDD VSS VSS gf180mcu_fd_sc_mcu7t5v0__fill_2
Xdstage\[4\].id.delayen0 dstage\[4\].id.trim0bar/I dstage\[4\].id.delayen0/I dstage\[4\].id.hold_out/Z
+ VDD VDD VSS VSS gf180mcu_fd_sc_mcu7t5v0__invz_2
Xdstage\[11\].id.trim0bar dstage\[11\].id.trim0bar/I dstage\[11\].id.trim0bar/ZN VDD
+ VDD VSS VSS gf180mcu_fd_sc_mcu7t5v0__inv_1
XANTENNA_dstage\[3\].id.t0_latch_D trim[3] VDD VDD VSS VSS gf180mcu_fd_sc_mcu7t5v0__antenna
Xdstage\[9\].id.hold_out iss.trim_inhibit/A1 VDD VDD VSS VSS gf180mcu_fd_sc_mcu7t5v0__hold
Xdstage\[4\].id.trim1bar dstage\[4\].id.trim1bar/I dstage\[4\].id.trim1bar/ZN VDD
+ VDD VSS VSS gf180mcu_fd_sc_mcu7t5v0__inv_1
XFILLER_6_2 VDD VDD VSS VSS gf180mcu_fd_sc_mcu7t5v0__fill_1
Xdstage\[10\].id.delaybuf1 dstage\[10\].id.delayenb1/I dstage\[10\].id.delayen1/I
+ VDD VDD VSS VSS gf180mcu_fd_sc_mcu7t5v0__clkbuf_1
XPHY_EDGE_ROW_18_Right_18 VDD VSS gf180mcu_fd_sc_mcu7t5v0__endcap
Xdstage\[5\].id.deglitch_buf ibufp10/I dstage\[5\].id.deglitch_buf/Z VDD VDD VSS VSS
+ gf180mcu_fd_sc_mcu7t5v0__clkbuf_2
Xdstage\[3\].id.delaybuf0 dstage\[2\].id.hold_out/Z dstage\[3\].id.delayenb1/I VDD
+ VDD VSS VSS gf180mcu_fd_sc_mcu7t5v0__clkbuf_2
XTAP_TAPCELL_ROW_6_58 VDD VSS gf180mcu_fd_sc_mcu7t5v0__filltie
Xdstage\[6\].id.delayint0 dstage\[6\].id.hold_d1/Z dstage\[6\].id.delayen0/I VDD VDD
+ VSS VSS gf180mcu_fd_sc_mcu7t5v0__clkinv_2
XTAP_TAPCELL_ROW_21_89 VDD VSS gf180mcu_fd_sc_mcu7t5v0__filltie
Xdstage\[8\].id.trim_inhibit ibufp10/I dstage\[8\].id.deglitch_buf/Z dstage\[8\].id.t1_latch/E
+ VDD VDD VSS VSS gf180mcu_fd_sc_mcu7t5v0__xor2_1
Xdstage\[2\].id.hold_d1 dstage\[2\].id.hold_d1/Z VDD VDD VSS VSS gf180mcu_fd_sc_mcu7t5v0__hold
XTAP_TAPCELL_ROW_16_78 VDD VSS gf180mcu_fd_sc_mcu7t5v0__filltie
XPHY_EDGE_ROW_10_Left_32 VDD VSS gf180mcu_fd_sc_mcu7t5v0__endcap
Xdstage\[4\].id.delayen1 dstage\[4\].id.trim1bar/I dstage\[4\].id.delayen1/I dstage\[4\].id.hold_d1/Z
+ VDD VDD VSS VSS gf180mcu_fd_sc_mcu7t5v0__invz_2
XPHY_EDGE_ROW_0_Right_0 VDD VSS gf180mcu_fd_sc_mcu7t5v0__endcap
XFILLER_7_152 VDD VDD VSS VSS gf180mcu_fd_sc_mcu7t5v0__fill_2
XFILLER_21_2 VDD VDD VSS VSS gf180mcu_fd_sc_mcu7t5v0__fill_1
Xdstage\[9\].id.t1_latch trim[22] dstage\[9\].id.t1_latch/E _0_/ZN dstage\[9\].id.trim1bar/I
+ VDD VDD VSS VSS gf180mcu_fd_sc_mcu7t5v0__latrnq_1
Xdstage\[3\].id.trim0bar dstage\[3\].id.trim0bar/I dstage\[3\].id.trim0bar/ZN VDD
+ VDD VSS VSS gf180mcu_fd_sc_mcu7t5v0__inv_1
Xdstage\[7\].id.hold_d1 dstage\[7\].id.hold_d1/Z VDD VDD VSS VSS gf180mcu_fd_sc_mcu7t5v0__hold
Xdstage\[10\].id.deglitch_buf id0.trim_inhibit/A1 dstage\[10\].id.deglitch_buf/Z VDD
+ VDD VSS VSS gf180mcu_fd_sc_mcu7t5v0__clkbuf_2
XTAP_TAPCELL_ROW_6_59 VDD VSS gf180mcu_fd_sc_mcu7t5v0__filltie
Xid0.hold_out id0.hold_out/Z VDD VDD VSS VSS gf180mcu_fd_sc_mcu7t5v0__hold
Xiss.trim_inhibit iss.trim_inhibit/A1 iss.deglitch_buf/Z iss.t1_latch/E VDD VDD VSS
+ VSS gf180mcu_fd_sc_mcu7t5v0__xor2_1
Xdstage\[3\].id.delaybuf1 dstage\[3\].id.delayenb1/I dstage\[3\].id.delayen1/I VDD
+ VDD VSS VSS gf180mcu_fd_sc_mcu7t5v0__clkbuf_1
XFILLER_15_124 VDD VDD VSS VSS gf180mcu_fd_sc_mcu7t5v0__fillcap_16
XFILLER_15_113 VDD VDD VSS VSS gf180mcu_fd_sc_mcu7t5v0__fill_1
XTAP_TAPCELL_ROW_16_79 VDD VSS gf180mcu_fd_sc_mcu7t5v0__filltie
XFILLER_21_138 VDD VDD VSS VSS gf180mcu_fd_sc_mcu7t5v0__fillcap_16
XFILLER_14_2 VDD VDD VSS VSS gf180mcu_fd_sc_mcu7t5v0__fill_1
XFILLER_4_134 VDD VDD VSS VSS gf180mcu_fd_sc_mcu7t5v0__fillcap_16
XANTENNA_dstage\[10\].id.t1_latch_D trim[23] VDD VDD VSS VSS gf180mcu_fd_sc_mcu7t5v0__antenna
Xid1.delayenb0 id1.trim0bar/ZN id1.delayenb1/I id1.hold_out/Z VDD VDD VSS VSS gf180mcu_fd_sc_mcu7t5v0__invz_8
XFILLER_10_37 VDD VDD VSS VSS gf180mcu_fd_sc_mcu7t5v0__fill_1
Xdstage\[9\].id.t0_latch trim[9] dstage\[9\].id.t1_latch/E _0_/ZN dstage\[9\].id.trim0bar/I
+ VDD VDD VSS VSS gf180mcu_fd_sc_mcu7t5v0__latrnq_1
Xid0.t1_latch trim[13] id0.t1_latch/E _0_/ZN id0.trim1bar/I VDD VDD VSS VSS gf180mcu_fd_sc_mcu7t5v0__latrnq_1
Xdstage\[2\].id.delayint0 dstage\[2\].id.hold_d1/Z dstage\[2\].id.delayen0/I VDD VDD
+ VSS VSS gf180mcu_fd_sc_mcu7t5v0__clkinv_2
XFILLER_16_25 VDD VDD VSS VSS gf180mcu_fd_sc_mcu7t5v0__fill_1
XANTENNA_iss.ctrlen0_A1 reset VDD VDD VSS VSS gf180mcu_fd_sc_mcu7t5v0__antenna
Xid0.deglitch_buf id0.hold_out/Z id0.deglitch_buf/Z VDD VDD VSS VSS gf180mcu_fd_sc_mcu7t5v0__clkbuf_2
Xid1.delayenb1 id1.trim1bar/ZN id1.delayenb1/I id1.hold_d1/Z VDD VDD VSS VSS gf180mcu_fd_sc_mcu7t5v0__invz_4
XPHY_EDGE_ROW_14_Right_14 VDD VSS gf180mcu_fd_sc_mcu7t5v0__endcap
XFILLER_18_134 VDD VDD VSS VSS gf180mcu_fd_sc_mcu7t5v0__fillcap_16
XTAP_TAPCELL_ROW_7_60 VDD VSS gf180mcu_fd_sc_mcu7t5v0__filltie
XFILLER_21_118 VDD VDD VSS VSS gf180mcu_fd_sc_mcu7t5v0__fillcap_16
XFILLER_20_151 VDD VDD VSS VSS gf180mcu_fd_sc_mcu7t5v0__fill_2
Xid0.t0_latch trim[0] id0.t1_latch/E _0_/ZN id0.trim0bar/I VDD VDD VSS VSS gf180mcu_fd_sc_mcu7t5v0__latrnq_1
XPHY_EDGE_ROW_4_Right_4 VDD VSS gf180mcu_fd_sc_mcu7t5v0__endcap
XPHY_EDGE_ROW_14_Left_36 VDD VSS gf180mcu_fd_sc_mcu7t5v0__endcap
Xdstage\[3\].id.trim_inhibit id0.hold_out/Z dstage\[3\].id.deglitch_buf/Z dstage\[3\].id.t1_latch/E
+ VDD VDD VSS VSS gf180mcu_fd_sc_mcu7t5v0__xor2_1
XTAP_TAPCELL_ROW_17_80 VDD VSS gf180mcu_fd_sc_mcu7t5v0__filltie
Xdstage\[6\].id.hold_out dstage\[6\].id.hold_out/Z VDD VDD VSS VSS gf180mcu_fd_sc_mcu7t5v0__hold
XFILLER_1_139 VDD VDD VSS VSS gf180mcu_fd_sc_mcu7t5v0__fill_1
Xid1.delaybuf0 id0.hold_out/Z id1.delayenb1/I VDD VDD VSS VSS gf180mcu_fd_sc_mcu7t5v0__clkbuf_2
XPHY_EDGE_ROW_2_Left_24 VDD VSS gf180mcu_fd_sc_mcu7t5v0__endcap
XFILLER_21_27 VDD VDD VSS VSS gf180mcu_fd_sc_mcu7t5v0__fill_1
XANTENNA_dstage\[5\].id.t1_latch_D trim[18] VDD VDD VSS VSS gf180mcu_fd_sc_mcu7t5v0__antenna
XTAP_TAPCELL_ROW_7_61 VDD VSS gf180mcu_fd_sc_mcu7t5v0__filltie
XANTENNA_iss.reseten0_EN reset VDD VDD VSS VSS gf180mcu_fd_sc_mcu7t5v0__antenna
XFILLER_11_152 VDD VDD VSS VSS gf180mcu_fd_sc_mcu7t5v0__fill_2
XTAP_TAPCELL_ROW_17_81 VDD VSS gf180mcu_fd_sc_mcu7t5v0__filltie
XFILLER_12_2 VDD VDD VSS VSS gf180mcu_fd_sc_mcu7t5v0__fill_1
Xdstage\[6\].id.t1_latch trim[19] dstage\[6\].id.t1_latch/E _0_/ZN dstage\[6\].id.trim1bar/I
+ VDD VDD VSS VSS gf180mcu_fd_sc_mcu7t5v0__latrnq_1
XFILLER_5_95 VDD VDD VSS VSS gf180mcu_fd_sc_mcu7t5v0__fill_1
XANTENNA_dstage\[9\].id.t0_latch_D trim[9] VDD VDD VSS VSS gf180mcu_fd_sc_mcu7t5v0__antenna
Xdstage\[9\].id.delayen0 dstage\[9\].id.trim0bar/I dstage\[9\].id.delayen0/I iss.trim_inhibit/A1
+ VDD VDD VSS VSS gf180mcu_fd_sc_mcu7t5v0__invz_2
Xid1.delaybuf1 id1.delayenb1/I id1.delayen1/I VDD VDD VSS VSS gf180mcu_fd_sc_mcu7t5v0__clkbuf_1
Xid1.trim_inhibit iss.delayenb1/I id1.deglitch_buf/Z id1.t1_latch/E VDD VDD VSS VSS
+ gf180mcu_fd_sc_mcu7t5v0__xor2_1
Xdstage\[6\].id.delayenb0 dstage\[6\].id.trim0bar/ZN dstage\[6\].id.delayenb1/I dstage\[6\].id.hold_out/Z
+ VDD VDD VSS VSS gf180mcu_fd_sc_mcu7t5v0__invz_8
XFILLER_11_72 VDD VDD VSS VSS gf180mcu_fd_sc_mcu7t5v0__fill_1
Xdstage\[8\].id.deglitch_buf dstage\[8\].id.hold_out/Z dstage\[8\].id.deglitch_buf/Z
+ VDD VDD VSS VSS gf180mcu_fd_sc_mcu7t5v0__clkbuf_2
Xdstage\[9\].id.trim1bar dstage\[9\].id.trim1bar/I dstage\[9\].id.trim1bar/ZN VDD
+ VDD VSS VSS gf180mcu_fd_sc_mcu7t5v0__inv_1
Xiss.ctrlen0 reset iss.t0_latch/Q iss.ctrlen0/ZN VDD VDD VSS VSS gf180mcu_fd_sc_mcu7t5v0__nor2_2
XFILLER_14_150 VDD VDD VSS VSS gf180mcu_fd_sc_mcu7t5v0__fillcap_4
XFILLER_20_153 VDD VDD VSS VSS gf180mcu_fd_sc_mcu7t5v0__fill_1
XFILLER_20_131 VDD VDD VSS VSS gf180mcu_fd_sc_mcu7t5v0__fillcap_16
Xid0.delayint0 id0.hold_d1/Z id0.delayen0/I VDD VDD VSS VSS gf180mcu_fd_sc_mcu7t5v0__clkinv_2
XANTENNA__0__I reset VDD VDD VSS VSS gf180mcu_fd_sc_mcu7t5v0__antenna
Xdstage\[9\].id.delayen1 dstage\[9\].id.trim1bar/I dstage\[9\].id.delayen1/I dstage\[9\].id.hold_d1/Z
+ VDD VDD VSS VSS gf180mcu_fd_sc_mcu7t5v0__invz_2
Xdstage\[6\].id.t0_latch trim[6] dstage\[6\].id.t1_latch/E _0_/ZN dstage\[6\].id.trim0bar/I
+ VDD VDD VSS VSS gf180mcu_fd_sc_mcu7t5v0__latrnq_1
Xiss.deglitch_buf ibufp00/I iss.deglitch_buf/Z VDD VDD VSS VSS gf180mcu_fd_sc_mcu7t5v0__clkbuf_2
Xdstage\[11\].id.hold_out iss.delayenb1/I VDD VDD VSS VSS gf180mcu_fd_sc_mcu7t5v0__hold
XPHY_EDGE_ROW_10_Right_10 VDD VSS gf180mcu_fd_sc_mcu7t5v0__endcap
Xid0.delayen0 id0.trim0bar/I id0.delayen0/I id0.hold_out/Z VDD VDD VSS VSS gf180mcu_fd_sc_mcu7t5v0__invz_2
Xdstage\[6\].id.delayenb1 dstage\[6\].id.trim1bar/ZN dstage\[6\].id.delayenb1/I dstage\[6\].id.hold_d1/Z
+ VDD VDD VSS VSS gf180mcu_fd_sc_mcu7t5v0__invz_4
Xdstage\[8\].id.trim0bar dstage\[8\].id.trim0bar/I dstage\[8\].id.trim0bar/ZN VDD
+ VDD VSS VSS gf180mcu_fd_sc_mcu7t5v0__inv_1
XANTENNA_dstage\[4\].id.t0_latch_D trim[4] VDD VDD VSS VSS gf180mcu_fd_sc_mcu7t5v0__antenna
Xid0.trim1bar id0.trim1bar/I id0.trim1bar/ZN VDD VDD VSS VSS gf180mcu_fd_sc_mcu7t5v0__inv_1
XFILLER_17_61 VDD VDD VSS VSS gf180mcu_fd_sc_mcu7t5v0__fill_1
XPHY_EDGE_ROW_8_Right_8 VDD VSS gf180mcu_fd_sc_mcu7t5v0__endcap
XFILLER_3_150 VDD VDD VSS VSS gf180mcu_fd_sc_mcu7t5v0__fillcap_4
X_0_ reset _0_/ZN VDD VDD VSS VSS gf180mcu_fd_sc_mcu7t5v0__clkinv_1
Xdstage\[11\].id.t1_latch trim[24] dstage\[11\].id.t1_latch/E _0_/ZN dstage\[11\].id.trim1bar/I
+ VDD VDD VSS VSS gf180mcu_fd_sc_mcu7t5v0__latrnq_1
Xid0.delayen1 id0.trim1bar/I id0.delayen1/I id0.hold_d1/Z VDD VDD VSS VSS gf180mcu_fd_sc_mcu7t5v0__invz_2
XPHY_EDGE_ROW_6_Left_28 VDD VSS gf180mcu_fd_sc_mcu7t5v0__endcap
XFILLER_11_144 VDD VDD VSS VSS gf180mcu_fd_sc_mcu7t5v0__fillcap_8
Xiss.hold_d1 iss.hold_d1/Z VDD VDD VSS VSS gf180mcu_fd_sc_mcu7t5v0__hold
Xdstage\[6\].id.delaybuf0 ibufp10/I dstage\[6\].id.delayenb1/I VDD VDD VSS VSS gf180mcu_fd_sc_mcu7t5v0__clkbuf_2
Xdstage\[2\].id.delayenb0 dstage\[2\].id.trim0bar/ZN dstage\[2\].id.delayenb1/I dstage\[2\].id.hold_out/Z
+ VDD VDD VSS VSS gf180mcu_fd_sc_mcu7t5v0__invz_8
XFILLER_7_148 VDD VDD VSS VSS gf180mcu_fd_sc_mcu7t5v0__fillcap_4
Xdstage\[9\].id.delayint0 dstage\[9\].id.hold_d1/Z dstage\[9\].id.delayen0/I VDD VDD